scons: Reading SConscript files ...
Warning: Your compiler doesn't support incremental linking and lto at the same time, so lto is being disabled. To force lto on anyway, use the --force-lto option. That will disable partial linking.
Warning: Protocol buffer compiler (protoc) not found.
         Please install protobuf-compiler for tracing support.
Checking for C header file Python.h... (cached) yes
Checking for C library python2.7... (cached) yes
Checking for C library pthread... (cached) yes
Checking for C library dl... (cached) yes
Checking for C library util... (cached) yes
Checking for C library m... (cached) yes
Checking for accept(0,0,0) in C++ library None... (cached) yes
Checking for zlibVersion() in C++ library z... (cached) yes
Checking for C header file valgrind/valgrind.h... (cached) yes
Checking for clock_nanosleep(0,0,NULL,NULL) in C library None... (cached) yes
Checking for timer_create(CLOCK_MONOTONIC, NULL, NULL) in C library None... (cached) no
Checking for timer_create(CLOCK_MONOTONIC, NULL, NULL) in C library rt... (cached) yes
Checking for C library tcmalloc... (cached) yes
Checking for char temp; backtrace_symbols_fd((void*)&temp, 0, 0) in C library None... (cached) yes
Checking for C header file fenv.h... (cached) yes
Checking for C header file png.h... (cached) yes
Checking for C header file linux/kvm.h... (cached) yes
Checking for C header file linux/if_tun.h... (cached) yes
Checking size of struct kvm_xsave ... (cached) yes
Checking for member exclude_host in struct perf_event_attr...(cached) yes
Checking whether __i386__ is declared... (cached) no
Checking whether __x86_64__ is declared... (cached) yes
Building in /home/futianyi/gem5/gem5/build/X86
Using saved variables file /home/futianyi/gem5/gem5/build/variables/X86
scons: done reading SConscript files.
scons: Building targets ...
 [VER TAGS]  -> X86/sim/tags.cc
 [     CXX] X86/cpu/o3/base_dyn_inst.cc -> .o
 [     CXX] X86/cpu/o3/commit.cc -> .o
 [     CXX] X86/cpu/o3/cpu.cc -> .o
 [     CXX] X86/cpu/o3/deriv.cc -> .o
 [     CXX] X86/cpu/o3/decode.cc -> .o
 [     CXX] X86/cpu/o3/dyn_inst.cc -> .o
 [     CXX] X86/cpu/o3/fetch.cc -> .o
 [     CXX] X86/cpu/o3/iew.cc -> .o
 [     CXX] X86/cpu/o3/inst_queue.cc -> .o
 [     CXX] X86/cpu/o3/lsq.cc -> .o
 [     CXX] X86/cpu/o3/lsq_unit.cc -> .o
 [     CXX] X86/cpu/o3/mem_dep_unit.cc -> .o
 [     CXX] X86/cpu/o3/rename.cc -> .o
scons: building terminated because of errors.
gem5 Simulator System.  http://gem5.org
gem5 is copyrighted software; use the --copyright option for details.

gem5 compiled Apr 16 2019 17:15:03
gem5 started Apr 16 2019 17:43:58
gem5 executing on mprc-R730, pid 25808
command line: build/X86/gem5.opt configs/example/se.py --cpu-type=DerivO3CPU --caches -c tests/test-progs/hello/bin/x86/linux/hello

Global frequency set at 1000000000000 ticks per second
finish init
**** REAL SIMULATION ****
resultvalue:0 T0 : 04194704 `  XOR_R_R : xor   rbp, rbp, rbp'
commithead::src op[0] value is:0  arch reg:5 physical reg:5(flat:5)
commithead::src op[1] value is:0  arch reg:5 physical reg:5(flat:5)
commithead:: dest op[0] value is:0  arch reg:5 physical reg:38(flat:38)

resultvalue:0 T0 : 04194707 `  MOV_R_R : mov   r9, r9, rdx'
commithead::src op[0] value is:0  arch reg:9 physical reg:9(flat:9)
commithead::src op[1] value is:0  arch reg:2 physical reg:2(flat:2)
commithead::src op[2] value is:0  arch reg:9 physical reg:9(flat:9)
commithead:: dest op[0] value is:0  arch reg:9 physical reg:39(flat:39)

resultvalue:1 T0 : 04194710 `  POP_R : ldis   t1, SS:[rsp]'
commithead::src op[0] value is:0  arch reg:16 physical reg:16(flat:16)
commithead::src op[1] value is:140737488350768  arch reg:4 physical reg:4(flat:4)
commithead:: dest op[0] value is:1  arch reg:17 physical reg:40(flat:40)

resultvalue:140737488350776 T0 : 04194710 `  POP_R : addi   rsp, rsp, 0x8'
commithead::src op[0] value is:140737488350768  arch reg:4 physical reg:4(flat:4)
commithead:: dest op[0] value is:140737488350776  arch reg:4 physical reg:41(flat:41)

resultvalue:1 T0 : 04194710 `  POP_R : mov   rsi, rsi, t1'
commithead::src op[0] value is:0  arch reg:6 physical reg:6(flat:6)
commithead::src op[1] value is:1  arch reg:17 physical reg:40(flat:40)
commithead::src op[2] value is:0  arch reg:6 physical reg:6(flat:6)
commithead:: dest op[0] value is:1  arch reg:6 physical reg:42(flat:42)

resultvalue:140737488350776 T0 : 04194711 `  MOV_R_R : mov   rdx, rdx, rsp'
commithead::src op[0] value is:0  arch reg:2 physical reg:2(flat:2)
commithead::src op[1] value is:140737488350776  arch reg:4 physical reg:41(flat:41)
commithead::src op[2] value is:0  arch reg:2 physical reg:2(flat:2)
commithead:: dest op[0] value is:140737488350776  arch reg:2 physical reg:43(flat:43)

resultvalue:18446744073709551600 T0 : 04194714 `  AND_R_I : limm   t1, 0xfffffffffffffff0'
commithead:: dest op[0] value is:18446744073709551600  arch reg:17 physical reg:44(flat:44)

resultvalue:140737488350768 T0 : 04194714 `  AND_R_I : and   rsp, rsp, t1'
commithead::src op[0] value is:140737488350776  arch reg:4 physical reg:41(flat:41)
commithead::src op[1] value is:18446744073709551600  arch reg:17 physical reg:44(flat:44)
commithead:: dest op[0] value is:140737488350768  arch reg:4 physical reg:45(flat:45)

resultvalue:0 T0 : 04194718 `  PUSH_R : stis   rax, SS:[rsp + 0xfffffffffffffff8]'
commithead::src op[0] value is:0  arch reg:16 physical reg:16(flat:16)
commithead::src op[1] value is:140737488350768  arch reg:4 physical reg:45(flat:45)
commithead::src op[2] value is:0  arch reg:0 physical reg:0(flat:0)

resultvalue:140737488350760 T0 : 04194718 `  PUSH_R : subi   rsp, rsp, 0x8'
commithead::src op[0] value is:140737488350768  arch reg:4 physical reg:45(flat:45)
commithead:: dest op[0] value is:140737488350760  arch reg:4 physical reg:46(flat:46)

resultvalue:0 T0 : 04194719 `  PUSH_R : stis   rsp, SS:[rsp + 0xfffffffffffffff8]'
commithead::src op[0] value is:0  arch reg:16 physical reg:16(flat:16)
commithead::src op[1] value is:140737488350760  arch reg:4 physical reg:46(flat:46)
commithead::src op[2] value is:140737488350760  arch reg:4 physical reg:46(flat:46)

resultvalue:140737488350752 T0 : 04194719 `  PUSH_R : subi   rsp, rsp, 0x8'
commithead::src op[0] value is:140737488350760  arch reg:4 physical reg:46(flat:46)
commithead:: dest op[0] value is:140737488350752  arch reg:4 physical reg:47(flat:47)

resultvalue:4235360 T0 : 04194720 `  MOV_R_I : limm   r8, 0x40a060'
commithead:: dest op[0] value is:4235360  arch reg:8 physical reg:48(flat:48)

resultvalue:4235248 T0 : 04194727 `  MOV_R_I : limm   rcx, 0x409ff0'
commithead:: dest op[0] value is:4235248  arch reg:1 physical reg:49(flat:49)

resultvalue:4194932 T0 : 04194734 `  MOV_R_I : limm   rdi, 0x400274'
commithead:: dest op[0] value is:4194932  arch reg:7 physical reg:50(flat:50)

resultvalue:38982 T0 : 04194741 `  CALL_NEAR_I : limm   t1, 0x9846'
commithead:: dest op[0] value is:38982  arch reg:17 physical reg:51(flat:51)

resultvalue:4194746 T0 : 04194741 `  CALL_NEAR_I : rdip   t7, %ctrl153, '
commithead:: dest op[0] value is:4194746  arch reg:23 physical reg:52(flat:52)

resultvalue:0 T0 : 04194741 `  CALL_NEAR_I : stis   t7, SS:[rsp + 0xfffffffffffffff8]'
commithead::src op[0] value is:0  arch reg:16 physical reg:16(flat:16)
commithead::src op[1] value is:140737488350752  arch reg:4 physical reg:47(flat:47)
commithead::src op[2] value is:4194746  arch reg:23 physical reg:52(flat:52)

resultvalue:140737488350744 T0 : 04194741 `  CALL_NEAR_I : subi   rsp, rsp, 0x8'
commithead::src op[0] value is:140737488350752  arch reg:4 physical reg:47(flat:47)
commithead:: dest op[0] value is:140737488350744  arch reg:4 physical reg:53(flat:53)

resultvalue:0 T0 : 04194741 `  CALL_NEAR_I : wrip   , t7, t1'
commithead::src op[0] value is:4194746  arch reg:23 physical reg:52(flat:52)
commithead::src op[1] value is:38982  arch reg:17 physical reg:51(flat:51)

resultvalue:0 T0 : 04233728 `  PUSH_R : stis   r15, SS:[rsp + 0xfffffffffffffff8]'
commithead::src op[0] value is:0  arch reg:16 physical reg:16(flat:16)
commithead::src op[1] value is:140737488350744  arch reg:4 physical reg:53(flat:53)
commithead::src op[2] value is:0  arch reg:15 physical reg:15(flat:15)

resultvalue:140737488350736 T0 : 04233728 `  PUSH_R : subi   rsp, rsp, 0x8'
commithead::src op[0] value is:140737488350744  arch reg:4 physical reg:53(flat:53)
commithead:: dest op[0] value is:140737488350736  arch reg:4 physical reg:54(flat:54)

resultvalue:1 T0 : 04233730 `  MOVSXD_R_R : sexti   rax, rsi, 0x1f'
commithead::src op[0] value is:1  arch reg:6 physical reg:42(flat:42)
commithead:: dest op[0] value is:1  arch reg:0 physical reg:55(flat:55)

resultvalue:0 T0 : 04233733 `  MOV_R_R : mov   r15, r15, r9'
commithead::src op[0] value is:0  arch reg:15 physical reg:15(flat:15)
commithead::src op[1] value is:0  arch reg:9 physical reg:39(flat:39)
commithead::src op[2] value is:0  arch reg:15 physical reg:15(flat:15)
commithead:: dest op[0] value is:0  arch reg:15 physical reg:56(flat:56)

resultvalue:0 T0 : 04233736 `  PUSH_R : stis   r14, SS:[rsp + 0xfffffffffffffff8]'
commithead::src op[0] value is:0  arch reg:16 physical reg:16(flat:16)
commithead::src op[1] value is:140737488350736  arch reg:4 physical reg:54(flat:54)
commithead::src op[2] value is:0  arch reg:14 physical reg:14(flat:14)

resultvalue:140737488350728 T0 : 04233736 `  PUSH_R : subi   rsp, rsp, 0x8'
commithead::src op[0] value is:140737488350736  arch reg:4 physical reg:54(flat:54)
commithead:: dest op[0] value is:140737488350728  arch reg:4 physical reg:57(flat:57)

resultvalue:140737488350776 T0 : 04233738 `  MOV_R_R : mov   r14, r14, rdx'
commithead::src op[0] value is:0  arch reg:14 physical reg:14(flat:14)
commithead::src op[1] value is:140737488350776  arch reg:2 physical reg:43(flat:43)
commithead::src op[2] value is:0  arch reg:14 physical reg:14(flat:14)
commithead:: dest op[0] value is:140737488350776  arch reg:14 physical reg:58(flat:58)

resultvalue:0 T0 : 04233741 `  PUSH_R : stis   r13, SS:[rsp + 0xfffffffffffffff8]'
commithead::src op[0] value is:0  arch reg:16 physical reg:16(flat:16)
commithead::src op[1] value is:140737488350728  arch reg:4 physical reg:57(flat:57)
commithead::src op[2] value is:0  arch reg:13 physical reg:13(flat:13)

resultvalue:140737488350720 T0 : 04233741 `  PUSH_R : subi   rsp, rsp, 0x8'
commithead::src op[0] value is:140737488350728  arch reg:4 physical reg:57(flat:57)
commithead:: dest op[0] value is:140737488350720  arch reg:4 physical reg:59(flat:59)

resultvalue:1 T0 : 04233743 `  MOV_R_R : mov   r13d, r13d, esi'
commithead::src op[0] value is:0  arch reg:13 physical reg:13(flat:13)
commithead::src op[1] value is:1  arch reg:6 physical reg:42(flat:42)
commithead::src op[2] value is:0  arch reg:13 physical reg:13(flat:13)
commithead:: dest op[0] value is:1  arch reg:13 physical reg:60(flat:60)

resultvalue:0 T0 : 04233746 `  PUSH_R : stis   r12, SS:[rsp + 0xfffffffffffffff8]'
commithead::src op[0] value is:0  arch reg:16 physical reg:16(flat:16)
commithead::src op[1] value is:140737488350720  arch reg:4 physical reg:59(flat:59)
commithead::src op[2] value is:0  arch reg:12 physical reg:12(flat:12)

resultvalue:140737488350712 T0 : 04233746 `  PUSH_R : subi   rsp, rsp, 0x8'
commithead::src op[0] value is:140737488350720  arch reg:4 physical reg:59(flat:59)
commithead:: dest op[0] value is:140737488350712  arch reg:4 physical reg:61(flat:61)

resultvalue:0 T0 : 04233748 `  PUSH_R : stis   rbp, SS:[rsp + 0xfffffffffffffff8]'
commithead::src op[0] value is:0  arch reg:16 physical reg:16(flat:16)
commithead::src op[1] value is:140737488350712  arch reg:4 physical reg:61(flat:61)
commithead::src op[2] value is:0  arch reg:5 physical reg:38(flat:38)

resultvalue:140737488350704 T0 : 04233748 `  PUSH_R : subi   rsp, rsp, 0x8'
commithead::src op[0] value is:140737488350712  arch reg:4 physical reg:61(flat:61)
commithead:: dest op[0] value is:140737488350704  arch reg:4 physical reg:62(flat:62)

resultvalue:0 T0 : 04233749 `  PUSH_R : stis   rbx, SS:[rsp + 0xfffffffffffffff8]'
commithead::src op[0] value is:0  arch reg:16 physical reg:16(flat:16)
commithead::src op[1] value is:140737488350704  arch reg:4 physical reg:62(flat:62)
commithead::src op[2] value is:0  arch reg:3 physical reg:3(flat:3)

resultvalue:140737488350696 T0 : 04233749 `  PUSH_R : subi   rsp, rsp, 0x8'
commithead::src op[0] value is:140737488350704  arch reg:4 physical reg:62(flat:62)
commithead:: dest op[0] value is:140737488350696  arch reg:4 physical reg:63(flat:63)

resultvalue:504 T0 : 04233750 `  SUB_R_I : limm   t1, 0x1f8'
commithead:: dest op[0] value is:504  arch reg:17 physical reg:64(flat:64)

resultvalue:140737488350192 T0 : 04233750 `  SUB_R_I : sub   rsp, rsp, t1'
commithead::src op[0] value is:140737488350696  arch reg:4 physical reg:63(flat:63)
commithead::src op[1] value is:504  arch reg:17 physical reg:64(flat:64)
commithead:: dest op[0] value is:140737488350192  arch reg:4 physical reg:65(flat:65)

resultvalue:0 T0 : 04233757 `  MOV_M_R : st   rdi, DS:[rsp + 0x18]'
commithead::src op[0] value is:0  arch reg:16 physical reg:16(flat:16)
commithead::src op[1] value is:140737488350192  arch reg:4 physical reg:65(flat:65)
commithead::src op[2] value is:4194932  arch reg:7 physical reg:50(flat:50)

resultvalue:140737488350792 T0 : 04233762 `  LEA_R_M : lea   rdi, DS:[8*rax + rdx + 0x8]'
commithead::src op[0] value is:1  arch reg:0 physical reg:55(flat:55)
commithead::src op[1] value is:140737488350776  arch reg:2 physical reg:43(flat:43)
commithead::src op[2] value is:4194932  arch reg:7 physical reg:50(flat:50)
commithead:: dest op[0] value is:140737488350792  arch reg:7 physical reg:66(flat:66)

resultvalue:0 T0 : 04233767 `  MOV_R_I : limm   eax, 0'
commithead:: dest op[0] value is:0  arch reg:0 physical reg:67(flat:67)

resultvalue:0 T0 : 04233772 `  XOR_R_R : xor   edx, edx, edx'
commithead::src op[0] value is:140737488350776  arch reg:2 physical reg:43(flat:43)
commithead::src op[1] value is:140737488350776  arch reg:2 physical reg:43(flat:43)
commithead:: dest op[0] value is:0  arch reg:2 physical reg:68(flat:68)

resultvalue:0 T0 : 04233774 `  TEST_R_R : and   t0, rax, rax'
commithead::src op[0] value is:0  arch reg:0 physical reg:67(flat:67)
commithead::src op[1] value is:0  arch reg:0 physical reg:67(flat:67)
commithead:: dest op[0] value is:0  arch reg:16 physical reg:16(flat:16)

resultvalue:0 T0 : 04233777 `  MOV_M_R : st   rcx, DS:[rsp + 0x10]'
commithead::src op[0] value is:0  arch reg:16 physical reg:16(flat:16)
commithead::src op[1] value is:140737488350192  arch reg:4 physical reg:65(flat:65)
commithead::src op[2] value is:4235248  arch reg:1 physical reg:49(flat:49)

resultvalue:0 T0 : 04233782 `  MOV_M_R : st   r8, DS:[rsp + 0x8]'
commithead::src op[0] value is:0  arch reg:16 physical reg:16(flat:16)
commithead::src op[1] value is:140737488350192  arch reg:4 physical reg:65(flat:65)
commithead::src op[2] value is:4235360  arch reg:8 physical reg:48(flat:48)

resultvalue:4233789 T0 : 04233787 `  JZ_I : rdip   t1, %ctrl153, '
commithead:: dest op[0] value is:4233789  arch reg:17 physical reg:69(flat:69)

resultvalue:18 T0 : 04233787 `  JZ_I : limm   t2, 0x12'
commithead:: dest op[0] value is:18  arch reg:18 physical reg:70(flat:70)

resultvalue:0 T0 : 04233787 `  JZ_I : wrip   , t1, t2'
commithead::src op[0] value is:4233789  arch reg:17 physical reg:69(flat:69)
commithead::src op[1] value is:18  arch reg:18 physical reg:70(flat:70)

resultvalue:140737488350760 T0 : 04233807 `  MOV_R_M : ld   rax, DS:[rsp + 0x230]'
commithead::src op[0] value is:0  arch reg:16 physical reg:16(flat:16)
commithead::src op[1] value is:140737488350192  arch reg:4 physical reg:65(flat:65)
commithead:: dest op[0] value is:140737488350760  arch reg:0 physical reg:71(flat:71)

resultvalue:4233821 T0 : 04233815 `  MOV_P_R : rdip   t7d, %ctrl153, '
commithead:: dest op[0] value is:4233821  arch reg:23 physical reg:72(flat:72)

resultvalue:0 T0 : 04233815 `  MOV_P_R : st   edx, DS:[t7 + 0x176d53]'
commithead::src op[0] value is:0  arch reg:16 physical reg:16(flat:16)
commithead::src op[1] value is:4233821  arch reg:23 physical reg:72(flat:72)
commithead::src op[2] value is:0  arch reg:2 physical reg:68(flat:68)

resultvalue:4233828 T0 : 04233821 `  MOV_P_R : rdip   t7, %ctrl153, '
commithead:: dest op[0] value is:4233828  arch reg:23 physical reg:73(flat:73)

resultvalue:0 T0 : 04233821 `  MOV_P_R : st   rdi, DS:[t7 + 0x189394]'
commithead::src op[0] value is:0  arch reg:16 physical reg:16(flat:16)
commithead::src op[1] value is:4233828  arch reg:23 physical reg:73(flat:73)
commithead::src op[2] value is:140737488350792  arch reg:7 physical reg:66(flat:66)

resultvalue:4233835 T0 : 04233828 `  MOV_P_R : rdip   t7, %ctrl153, '
commithead:: dest op[0] value is:4233835  arch reg:23 physical reg:74(flat:74)

resultvalue:0 T0 : 04233828 `  MOV_P_R : st   rax, DS:[t7 + 0x175f8d]'
commithead::src op[0] value is:0  arch reg:16 physical reg:16(flat:16)
commithead::src op[1] value is:4233835  arch reg:23 physical reg:74(flat:74)
commithead::src op[2] value is:140737488350760  arch reg:0 physical reg:71(flat:71)

resultvalue:0 T0 : 04233835 `  NOP   '

resultvalue:0 T0 : 04233838 `  NOP   '

resultvalue:0 T0 : 04233840 `  MOV_R_M : ld   rax, DS:[rdi]'
commithead::src op[0] value is:0  arch reg:16 physical reg:16(flat:16)
commithead::src op[1] value is:140737488350792  arch reg:7 physical reg:66(flat:66)
commithead:: dest op[0] value is:0  arch reg:0 physical reg:75(flat:75)

resultvalue:8 T0 : 04233843 `  ADD_R_I : limm   t1, 0x8'
commithead:: dest op[0] value is:8  arch reg:17 physical reg:76(flat:76)

resultvalue:140737488350800 T0 : 04233843 `  ADD_R_I : add   rdi, rdi, t1'
commithead::src op[0] value is:140737488350792  arch reg:7 physical reg:66(flat:66)
commithead::src op[1] value is:8  arch reg:17 physical reg:76(flat:76)
commithead:: dest op[0] value is:140737488350800  arch reg:7 physical reg:77(flat:77)

resultvalue:0 T0 : 04233847 `  TEST_R_R : and   t0, rax, rax'
commithead::src op[0] value is:0  arch reg:0 physical reg:75(flat:75)
commithead::src op[1] value is:0  arch reg:0 physical reg:75(flat:75)
commithead:: dest op[0] value is:0  arch reg:16 physical reg:16(flat:16)

resultvalue:4233852 T0 : 04233850 `  JNZ_I : rdip   t1, %ctrl153, '
commithead:: dest op[0] value is:4233852  arch reg:17 physical reg:78(flat:78)

resultvalue:18446744073709551604 T0 : 04233850 `  JNZ_I : limm   t2, 0xfffffffffffffff4'
commithead:: dest op[0] value is:18446744073709551604  arch reg:18 physical reg:79(flat:79)

resultvalue:0 T0 : 04233850 `  JNZ_I : wrip   , t1, t2'
commithead::src op[0] value is:4233852  arch reg:17 physical reg:78(flat:78)
commithead::src op[1] value is:18446744073709551604  arch reg:18 physical reg:79(flat:79)

resultvalue:49279 T0 : 04233852 `  CALL_NEAR_I : limm   t1, 0xc07f'
commithead:: dest op[0] value is:49279  arch reg:17 physical reg:80(flat:80)

resultvalue:4233857 T0 : 04233852 `  CALL_NEAR_I : rdip   t7, %ctrl153, '
commithead:: dest op[0] value is:4233857  arch reg:23 physical reg:81(flat:81)

resultvalue:0 T0 : 04233852 `  CALL_NEAR_I : stis   t7, SS:[rsp + 0xfffffffffffffff8]'
commithead::src op[0] value is:0  arch reg:16 physical reg:16(flat:16)
commithead::src op[1] value is:140737488350192  arch reg:4 physical reg:65(flat:65)
commithead::src op[2] value is:4233857  arch reg:23 physical reg:81(flat:81)

resultvalue:140737488350184 T0 : 04233852 `  CALL_NEAR_I : subi   rsp, rsp, 0x8'
commithead::src op[0] value is:140737488350192  arch reg:4 physical reg:65(flat:65)
commithead:: dest op[0] value is:140737488350184  arch reg:4 physical reg:82(flat:82)

resultvalue:0 T0 : 04233852 `  CALL_NEAR_I : wrip   , t7, t1'
commithead::src op[0] value is:4233857  arch reg:23 physical reg:81(flat:81)
commithead::src op[1] value is:49279  arch reg:17 physical reg:80(flat:80)

resultvalue:33 T0 : 04283136 `  MOV_R_M : ld   rax, DS:[rdi]'
commithead::src op[0] value is:0  arch reg:16 physical reg:16(flat:16)
commithead::src op[1] value is:140737488350800  arch reg:7 physical reg:77(flat:77)
commithead:: dest op[0] value is:33  arch reg:0 physical reg:100(flat:100)

resultvalue:0 T0 : 04283139 `  XOR_R_R : xor   edx, edx, edx'
commithead::src op[0] value is:0  arch reg:2 physical reg:68(flat:68)
commithead::src op[1] value is:0  arch reg:2 physical reg:68(flat:68)
commithead:: dest op[0] value is:0  arch reg:2 physical reg:101(flat:101)

resultvalue:0 T0 : 04283141 `  XOR_R_R : xor   ecx, ecx, ecx'
commithead::src op[0] value is:4235248  arch reg:1 physical reg:49(flat:49)
commithead::src op[1] value is:4235248  arch reg:1 physical reg:49(flat:49)
commithead:: dest op[0] value is:0  arch reg:1 physical reg:102(flat:102)

resultvalue:0 T0 : 04283143 `  XOR_R_R : xor   esi, esi, esi'
commithead::src op[0] value is:1  arch reg:6 physical reg:42(flat:42)
commithead::src op[1] value is:1  arch reg:6 physical reg:42(flat:42)
commithead:: dest op[0] value is:0  arch reg:6 physical reg:103(flat:103)

resultvalue:33 T0 : 04283145 `  TEST_R_R : and   t0, rax, rax'
commithead::src op[0] value is:33  arch reg:0 physical reg:100(flat:100)
commithead::src op[1] value is:33  arch reg:0 physical reg:100(flat:100)
commithead:: dest op[0] value is:0  arch reg:16 physical reg:16(flat:16)

resultvalue:4283150 T0 : 04283148 `  JZ_I : rdip   t1, %ctrl153, '
commithead:: dest op[0] value is:4283150  arch reg:17 physical reg:104(flat:104)

resultvalue:71 T0 : 04283148 `  JZ_I : limm   t2, 0x47'
commithead:: dest op[0] value is:71  arch reg:18 physical reg:105(flat:105)

resultvalue:0 T0 : 04283148 `  JZ_I : wrip   , t1, t2'
commithead::src op[0] value is:4283150  arch reg:17 physical reg:104(flat:104)
commithead::src op[1] value is:71  arch reg:18 physical reg:105(flat:105)

resultvalue:0 T0 : 04283150 `  NOP   '

resultvalue:3 T0 : 04283152 `  SUB_R_I : limm   t1, 0x3'
commithead:: dest op[0] value is:3  arch reg:17 physical reg:106(flat:106)

resultvalue:30 T0 : 04283152 `  SUB_R_I : sub   rax, rax, t1'
commithead::src op[0] value is:33  arch reg:0 physical reg:100(flat:100)
commithead::src op[1] value is:3  arch reg:17 physical reg:106(flat:106)
commithead:: dest op[0] value is:30  arch reg:0 physical reg:107(flat:107)

resultvalue:20 T0 : 04283156 `  CMP_R_I : limm   t1, 0x14'
commithead:: dest op[0] value is:20  arch reg:17 physical reg:108(flat:108)

resultvalue:10 T0 : 04283156 `  CMP_R_I : sub   t0, rax, t1'
commithead::src op[0] value is:30  arch reg:0 physical reg:107(flat:107)
commithead::src op[1] value is:20  arch reg:17 physical reg:108(flat:108)
commithead:: dest op[0] value is:0  arch reg:16 physical reg:16(flat:16)

resultvalue:4283162 T0 : 04283160 `  JNBE_I : rdip   t1, %ctrl153, '
commithead:: dest op[0] value is:4283162  arch reg:17 physical reg:109(flat:109)

resultvalue:38 T0 : 04283160 `  JNBE_I : limm   t2, 0x26'
commithead:: dest op[0] value is:38  arch reg:18 physical reg:110(flat:110)

resultvalue:0 T0 : 04283160 `  JNBE_I : wrip   , t1, t2'
commithead::src op[0] value is:4283162  arch reg:17 physical reg:109(flat:109)
commithead::src op[1] value is:38  arch reg:18 physical reg:110(flat:110)

resultvalue:16 T0 : 04283200 `  ADD_R_I : limm   t1, 0x10'
commithead:: dest op[0] value is:16  arch reg:17 physical reg:117(flat:117)

resultvalue:140737488350816 T0 : 04283200 `  ADD_R_I : add   rdi, rdi, t1'
commithead::src op[0] value is:140737488350800  arch reg:7 physical reg:77(flat:77)
commithead::src op[1] value is:16  arch reg:17 physical reg:117(flat:117)
commithead:: dest op[0] value is:140737488350816  arch reg:7 physical reg:118(flat:118)

resultvalue:16 T0 : 04283204 `  MOV_R_M : ld   rax, DS:[rdi]'
commithead::src op[0] value is:0  arch reg:16 physical reg:16(flat:16)
commithead::src op[1] value is:140737488350816  arch reg:7 physical reg:118(flat:118)
commithead:: dest op[0] value is:16  arch reg:0 physical reg:119(flat:119)

resultvalue:16 T0 : 04283207 `  TEST_R_R : and   t0, rax, rax'
commithead::src op[0] value is:16  arch reg:0 physical reg:119(flat:119)
commithead::src op[1] value is:16  arch reg:0 physical reg:119(flat:119)
commithead:: dest op[0] value is:0  arch reg:16 physical reg:16(flat:16)

resultvalue:4283212 T0 : 04283210 `  JNZ_I : rdip   t1, %ctrl153, '
commithead:: dest op[0] value is:4283212  arch reg:17 physical reg:120(flat:120)

resultvalue:18446744073709551556 T0 : 04283210 `  JNZ_I : limm   t2, 0xffffffffffffffc4'
commithead:: dest op[0] value is:18446744073709551556  arch reg:18 physical reg:121(flat:121)

resultvalue:0 T0 : 04283210 `  JNZ_I : wrip   , t1, t2'
commithead::src op[0] value is:4283212  arch reg:17 physical reg:120(flat:120)
commithead::src op[1] value is:18446744073709551556  arch reg:18 physical reg:121(flat:121)

resultvalue:3 T0 : 04283152 `  SUB_R_I : limm   t1, 0x3'
commithead:: dest op[0] value is:3  arch reg:17 physical reg:127(flat:127)

resultvalue:13 T0 : 04283152 `  SUB_R_I : sub   rax, rax, t1'
commithead::src op[0] value is:16  arch reg:0 physical reg:119(flat:119)
commithead::src op[1] value is:3  arch reg:17 physical reg:127(flat:127)
commithead:: dest op[0] value is:13  arch reg:0 physical reg:128(flat:128)

resultvalue:20 T0 : 04283156 `  CMP_R_I : limm   t1, 0x14'
commithead:: dest op[0] value is:20  arch reg:17 physical reg:129(flat:129)

resultvalue:18446744073709551609 T0 : 04283156 `  CMP_R_I : sub   t0, rax, t1'
commithead::src op[0] value is:13  arch reg:0 physical reg:128(flat:128)
commithead::src op[1] value is:20  arch reg:17 physical reg:129(flat:129)
commithead:: dest op[0] value is:0  arch reg:16 physical reg:16(flat:16)

resultvalue:4283162 T0 : 04283160 `  JNBE_I : rdip   t1, %ctrl153, '
commithead:: dest op[0] value is:4283162  arch reg:17 physical reg:130(flat:130)

resultvalue:38 T0 : 04283160 `  JNBE_I : limm   t2, 0x26'
commithead:: dest op[0] value is:38  arch reg:18 physical reg:131(flat:131)

resultvalue:0 T0 : 04283160 `  JNBE_I : wrip   , t1, t2'
commithead::src op[0] value is:4283162  arch reg:17 physical reg:130(flat:130)
commithead::src op[1] value is:38  arch reg:18 physical reg:131(flat:131)

resultvalue:4283247 T0 : 04283162 `  JMP_M : ld   t1, DS:[8*rax + 0x45eb80]'
commithead::src op[0] value is:13  arch reg:0 physical reg:128(flat:128)
commithead::src op[1] value is:0  arch reg:16 physical reg:16(flat:16)
commithead:: dest op[0] value is:4283247  arch reg:17 physical reg:132(flat:132)

resultvalue:0 T0 : 04283162 `  JMP_M : wripi   , t1, 0'
commithead::src op[0] value is:4283247  arch reg:17 physical reg:132(flat:132)

resultvalue:126614527 T0 : 04283247 `  MOV_R_M : ld   rax, DS:[rdi + 0x8]'
commithead::src op[0] value is:0  arch reg:16 physical reg:16(flat:16)
commithead::src op[1] value is:140737488350816  arch reg:7 physical reg:118(flat:118)
commithead:: dest op[0] value is:126614527  arch reg:0 physical reg:191(flat:191)

resultvalue:16 T0 : 04283251 `  ADD_R_I : limm   t1, 0x10'
commithead:: dest op[0] value is:16  arch reg:17 physical reg:192(flat:192)

resultvalue:140737488350832 T0 : 04283251 `  ADD_R_I : add   rdi, rdi, t1'
commithead::src op[0] value is:140737488350816  arch reg:7 physical reg:118(flat:118)
commithead::src op[1] value is:16  arch reg:17 physical reg:192(flat:192)
commithead:: dest op[0] value is:140737488350832  arch reg:7 physical reg:193(flat:193)

resultvalue:4283262 T0 : 04283255 `  MOV_P_R : rdip   t7, %ctrl153, '
commithead:: dest op[0] value is:4283262  arch reg:23 physical reg:194(flat:194)

resultvalue:0 T0 : 04283255 `  MOV_P_R : st   rax, DS:[t7 + 0x17d2f2]'
commithead::src op[0] value is:0  arch reg:16 physical reg:16(flat:16)
commithead::src op[1] value is:4283262  arch reg:23 physical reg:194(flat:194)
commithead::src op[2] value is:126614527  arch reg:0 physical reg:191(flat:191)

resultvalue:6 T0 : 04283262 `  MOV_R_M : ld   rax, DS:[rdi]'
commithead::src op[0] value is:0  arch reg:16 physical reg:16(flat:16)
commithead::src op[1] value is:140737488350832  arch reg:7 physical reg:193(flat:193)
commithead:: dest op[0] value is:6  arch reg:0 physical reg:195(flat:195)

resultvalue:6 T0 : 04283265 `  TEST_R_R : and   t0, rax, rax'
commithead::src op[0] value is:6  arch reg:0 physical reg:195(flat:195)
commithead::src op[1] value is:6  arch reg:0 physical reg:195(flat:195)
commithead:: dest op[0] value is:0  arch reg:16 physical reg:16(flat:16)

resultvalue:4283270 T0 : 04283268 `  JNZ_I : rdip   t1, %ctrl153, '
commithead:: dest op[0] value is:4283270  arch reg:17 physical reg:196(flat:196)

resultvalue:18446744073709551498 T0 : 04283268 `  JNZ_I : limm   t2, 0xffffffffffffff8a'
commithead:: dest op[0] value is:18446744073709551498  arch reg:18 physical reg:197(flat:197)

resultvalue:0 T0 : 04283268 `  JNZ_I : wrip   , t1, t2'
commithead::src op[0] value is:4283270  arch reg:17 physical reg:196(flat:196)
commithead::src op[1] value is:18446744073709551498  arch reg:18 physical reg:197(flat:197)

resultvalue:3 T0 : 04283152 `  SUB_R_I : limm   t1, 0x3'
commithead:: dest op[0] value is:3  arch reg:17 physical reg:220(flat:220)

resultvalue:3 T0 : 04283152 `  SUB_R_I : sub   rax, rax, t1'
commithead::src op[0] value is:6  arch reg:0 physical reg:195(flat:195)
commithead::src op[1] value is:3  arch reg:17 physical reg:220(flat:220)
commithead:: dest op[0] value is:3  arch reg:0 physical reg:221(flat:221)

resultvalue:20 T0 : 04283156 `  CMP_R_I : limm   t1, 0x14'
commithead:: dest op[0] value is:20  arch reg:17 physical reg:222(flat:222)

resultvalue:18446744073709551599 T0 : 04283156 `  CMP_R_I : sub   t0, rax, t1'
commithead::src op[0] value is:3  arch reg:0 physical reg:221(flat:221)
commithead::src op[1] value is:20  arch reg:17 physical reg:222(flat:222)
commithead:: dest op[0] value is:0  arch reg:16 physical reg:16(flat:16)

resultvalue:4283162 T0 : 04283160 `  JNBE_I : rdip   t1, %ctrl153, '
commithead:: dest op[0] value is:4283162  arch reg:17 physical reg:223(flat:223)

resultvalue:38 T0 : 04283160 `  JNBE_I : limm   t2, 0x26'
commithead:: dest op[0] value is:38  arch reg:18 physical reg:224(flat:224)

resultvalue:0 T0 : 04283160 `  JNBE_I : wrip   , t1, t2'
commithead::src op[0] value is:4283162  arch reg:17 physical reg:223(flat:223)
commithead::src op[1] value is:38  arch reg:18 physical reg:224(flat:224)

resultvalue:4283374 T0 : 04283162 `  JMP_M : ld   t1, DS:[8*rax + 0x45eb80]'
commithead::src op[0] value is:3  arch reg:0 physical reg:221(flat:221)
commithead::src op[1] value is:0  arch reg:16 physical reg:16(flat:16)
commithead:: dest op[0] value is:4283374  arch reg:17 physical reg:225(flat:225)

resultvalue:0 T0 : 04283162 `  JMP_M : wripi   , t1, 0'
commithead::src op[0] value is:4283374  arch reg:17 physical reg:225(flat:225)

resultvalue:4096 T0 : 04283374 `  MOV_R_M : ld   rax, DS:[rdi + 0x8]'
commithead::src op[0] value is:0  arch reg:16 physical reg:16(flat:16)
commithead::src op[1] value is:140737488350832  arch reg:7 physical reg:193(flat:193)
commithead:: dest op[0] value is:4096  arch reg:0 physical reg:241(flat:241)

resultvalue:16 T0 : 04283378 `  ADD_R_I : limm   t1, 0x10'
commithead:: dest op[0] value is:16  arch reg:17 physical reg:242(flat:242)

resultvalue:140737488350848 T0 : 04283378 `  ADD_R_I : add   rdi, rdi, t1'
commithead::src op[0] value is:140737488350832  arch reg:7 physical reg:193(flat:193)
commithead::src op[1] value is:16  arch reg:17 physical reg:242(flat:242)
commithead:: dest op[0] value is:140737488350848  arch reg:7 physical reg:243(flat:243)

resultvalue:4283389 T0 : 04283382 `  MOV_P_R : rdip   t7, %ctrl153, '
commithead:: dest op[0] value is:4283389  arch reg:23 physical reg:244(flat:244)

resultvalue:0 T0 : 04283382 `  MOV_P_R : st   rax, DS:[t7 + 0x17d943]'
commithead::src op[0] value is:0  arch reg:16 physical reg:16(flat:16)
commithead::src op[1] value is:4283389  arch reg:23 physical reg:244(flat:244)
commithead::src op[2] value is:4096  arch reg:0 physical reg:241(flat:241)

resultvalue:17 T0 : 04283389 `  MOV_R_M : ld   rax, DS:[rdi]'
commithead::src op[0] value is:0  arch reg:16 physical reg:16(flat:16)
commithead::src op[1] value is:140737488350848  arch reg:7 physical reg:243(flat:243)
commithead:: dest op[0] value is:17  arch reg:0 physical reg:245(flat:245)

resultvalue:17 T0 : 04283392 `  TEST_R_R : and   t0, rax, rax'
commithead::src op[0] value is:17  arch reg:0 physical reg:245(flat:245)
commithead::src op[1] value is:17  arch reg:0 physical reg:245(flat:245)
commithead:: dest op[0] value is:0  arch reg:16 physical reg:16(flat:16)

resultvalue:4283401 T0 : 04283395 `  JNZ_I : rdip   t1, %ctrl153, '
commithead:: dest op[0] value is:4283401  arch reg:17 physical reg:246(flat:246)

resultvalue:18446744073709551367 T0 : 04283395 `  JNZ_I : limm   t2, 0xffffffffffffff07'
commithead:: dest op[0] value is:18446744073709551367  arch reg:18 physical reg:247(flat:247)

resultvalue:0 T0 : 04283395 `  JNZ_I : wrip   , t1, t2'
commithead::src op[0] value is:4283401  arch reg:17 physical reg:246(flat:246)
commithead::src op[1] value is:18446744073709551367  arch reg:18 physical reg:247(flat:247)

resultvalue:3 T0 : 04283152 `  SUB_R_I : limm   t1, 0x3'
commithead:: dest op[0] value is:3  arch reg:17 physical reg:45(flat:45)

resultvalue:14 T0 : 04283152 `  SUB_R_I : sub   rax, rax, t1'
commithead::src op[0] value is:17  arch reg:0 physical reg:245(flat:245)
commithead::src op[1] value is:3  arch reg:17 physical reg:45(flat:45)
commithead:: dest op[0] value is:14  arch reg:0 physical reg:46(flat:46)

resultvalue:20 T0 : 04283156 `  CMP_R_I : limm   t1, 0x14'
commithead:: dest op[0] value is:20  arch reg:17 physical reg:8(flat:8)

resultvalue:18446744073709551610 T0 : 04283156 `  CMP_R_I : sub   t0, rax, t1'
commithead::src op[0] value is:14  arch reg:0 physical reg:46(flat:46)
commithead::src op[1] value is:20  arch reg:17 physical reg:8(flat:8)
commithead:: dest op[0] value is:0  arch reg:16 physical reg:16(flat:16)

resultvalue:4283162 T0 : 04283160 `  JNBE_I : rdip   t1, %ctrl153, '
commithead:: dest op[0] value is:4283162  arch reg:17 physical reg:1(flat:1)

resultvalue:38 T0 : 04283160 `  JNBE_I : limm   t2, 0x26'
commithead:: dest op[0] value is:38  arch reg:18 physical reg:7(flat:7)

resultvalue:0 T0 : 04283160 `  JNBE_I : wrip   , t1, t2'
commithead::src op[0] value is:4283162  arch reg:17 physical reg:1(flat:1)
commithead::src op[1] value is:38  arch reg:18 physical reg:7(flat:7)

resultvalue:4283223 T0 : 04283162 `  JMP_M : ld   t1, DS:[8*rax + 0x45eb80]'
commithead::src op[0] value is:14  arch reg:0 physical reg:46(flat:46)
commithead::src op[1] value is:0  arch reg:16 physical reg:16(flat:16)
commithead:: dest op[0] value is:4283223  arch reg:17 physical reg:44(flat:44)

resultvalue:0 T0 : 04283162 `  JMP_M : wripi   , t1, 0'
commithead::src op[0] value is:4283223  arch reg:17 physical reg:44(flat:44)

resultvalue:100 T0 : 04283223 `  MOV_R_M : ld   rax, DS:[rdi + 0x8]'
commithead::src op[0] value is:0  arch reg:16 physical reg:16(flat:16)
commithead::src op[1] value is:140737488350848  arch reg:7 physical reg:243(flat:243)
commithead:: dest op[0] value is:100  arch reg:0 physical reg:43(flat:43)

resultvalue:16 T0 : 04283227 `  ADD_R_I : limm   t1, 0x10'
commithead:: dest op[0] value is:16  arch reg:17 physical reg:55(flat:55)

resultvalue:140737488350864 T0 : 04283227 `  ADD_R_I : add   rdi, rdi, t1'
commithead::src op[0] value is:140737488350848  arch reg:7 physical reg:243(flat:243)
commithead::src op[1] value is:16  arch reg:17 physical reg:55(flat:55)
commithead:: dest op[0] value is:140737488350864  arch reg:7 physical reg:18(flat:18)

resultvalue:4283237 T0 : 04283231 `  MOV_P_R : rdip   t7d, %ctrl153, '
commithead:: dest op[0] value is:4283237  arch reg:23 physical reg:64(flat:64)

resultvalue:0 T0 : 04283231 `  MOV_P_R : st   eax, DS:[t7 + 0x17d98b]'
commithead::src op[0] value is:0  arch reg:16 physical reg:16(flat:16)
commithead::src op[1] value is:4283237  arch reg:23 physical reg:64(flat:64)
commithead::src op[2] value is:100  arch reg:0 physical reg:43(flat:43)

resultvalue:3 T0 : 04283237 `  MOV_R_M : ld   rax, DS:[rdi]'
commithead::src op[0] value is:0  arch reg:16 physical reg:16(flat:16)
commithead::src op[1] value is:140737488350864  arch reg:7 physical reg:18(flat:18)
commithead:: dest op[0] value is:3  arch reg:0 physical reg:52(flat:52)

resultvalue:3 T0 : 04283240 `  TEST_R_R : and   t0, rax, rax'
commithead::src op[0] value is:3  arch reg:0 physical reg:52(flat:52)
commithead::src op[1] value is:3  arch reg:0 physical reg:52(flat:52)
commithead:: dest op[0] value is:0  arch reg:16 physical reg:16(flat:16)

resultvalue:4283245 T0 : 04283243 `  JNZ_I : rdip   t1, %ctrl153, '
commithead:: dest op[0] value is:4283245  arch reg:17 physical reg:67(flat:67)

resultvalue:18446744073709551523 T0 : 04283243 `  JNZ_I : limm   t2, 0xffffffffffffffa3'
commithead:: dest op[0] value is:18446744073709551523  arch reg:18 physical reg:72(flat:72)

resultvalue:0 T0 : 04283243 `  JNZ_I : wrip   , t1, t2'
commithead::src op[0] value is:4283245  arch reg:17 physical reg:67(flat:67)
commithead::src op[1] value is:18446744073709551523  arch reg:18 physical reg:72(flat:72)

resultvalue:3 T0 : 04283152 `  SUB_R_I : limm   t1, 0x3'
commithead:: dest op[0] value is:3  arch reg:17 physical reg:89(flat:89)

resultvalue:0 T0 : 04283152 `  SUB_R_I : sub   rax, rax, t1'
commithead::src op[0] value is:3  arch reg:0 physical reg:52(flat:52)
commithead::src op[1] value is:3  arch reg:17 physical reg:89(flat:89)
commithead:: dest op[0] value is:0  arch reg:0 physical reg:88(flat:88)

resultvalue:20 T0 : 04283156 `  CMP_R_I : limm   t1, 0x14'
commithead:: dest op[0] value is:20  arch reg:17 physical reg:87(flat:87)

resultvalue:18446744073709551596 T0 : 04283156 `  CMP_R_I : sub   t0, rax, t1'
commithead::src op[0] value is:0  arch reg:0 physical reg:88(flat:88)
commithead::src op[1] value is:20  arch reg:17 physical reg:87(flat:87)
commithead:: dest op[0] value is:0  arch reg:16 physical reg:16(flat:16)

resultvalue:4283162 T0 : 04283160 `  JNBE_I : rdip   t1, %ctrl153, '
commithead:: dest op[0] value is:4283162  arch reg:17 physical reg:86(flat:86)

resultvalue:38 T0 : 04283160 `  JNBE_I : limm   t2, 0x26'
commithead:: dest op[0] value is:38  arch reg:18 physical reg:85(flat:85)

resultvalue:0 T0 : 04283160 `  JNBE_I : wrip   , t1, t2'
commithead::src op[0] value is:4283162  arch reg:17 physical reg:86(flat:86)
commithead::src op[1] value is:38  arch reg:18 physical reg:85(flat:85)

resultvalue:4283406 T0 : 04283162 `  JMP_M : ld   t1, DS:[8*rax + 0x45eb80]'
commithead::src op[0] value is:0  arch reg:0 physical reg:88(flat:88)
commithead::src op[1] value is:0  arch reg:16 physical reg:16(flat:16)
commithead:: dest op[0] value is:4283406  arch reg:17 physical reg:84(flat:84)

resultvalue:0 T0 : 04283162 `  JMP_M : wripi   , t1, 0'
commithead::src op[0] value is:4283406  arch reg:17 physical reg:84(flat:84)

resultvalue:4194368 T0 : 04283406 `  MOV_R_M : ld   rax, DS:[rdi + 0x8]'
commithead::src op[0] value is:0  arch reg:16 physical reg:16(flat:16)
commithead::src op[1] value is:140737488350864  arch reg:7 physical reg:18(flat:18)
commithead:: dest op[0] value is:4194368  arch reg:0 physical reg:116(flat:116)

resultvalue:16 T0 : 04283410 `  ADD_R_I : limm   t1, 0x10'
commithead:: dest op[0] value is:16  arch reg:17 physical reg:115(flat:115)

resultvalue:140737488350880 T0 : 04283410 `  ADD_R_I : add   rdi, rdi, t1'
commithead::src op[0] value is:140737488350864  arch reg:7 physical reg:18(flat:18)
commithead::src op[1] value is:16  arch reg:17 physical reg:115(flat:115)
commithead:: dest op[0] value is:140737488350880  arch reg:7 physical reg:114(flat:114)

resultvalue:4283421 T0 : 04283414 `  MOV_P_R : rdip   t7, %ctrl153, '
commithead:: dest op[0] value is:4283421  arch reg:23 physical reg:113(flat:113)

resultvalue:0 T0 : 04283414 `  MOV_P_R : st   rax, DS:[t7 + 0x17d8c3]'
commithead::src op[0] value is:0  arch reg:16 physical reg:16(flat:16)
commithead::src op[1] value is:4283421  arch reg:23 physical reg:113(flat:113)
commithead::src op[2] value is:4194368  arch reg:0 physical reg:116(flat:116)

resultvalue:4 T0 : 04283421 `  MOV_R_M : ld   rax, DS:[rdi]'
commithead::src op[0] value is:0  arch reg:16 physical reg:16(flat:16)
commithead::src op[1] value is:140737488350880  arch reg:7 physical reg:114(flat:114)
commithead:: dest op[0] value is:4  arch reg:0 physical reg:112(flat:112)

resultvalue:4 T0 : 04283424 `  TEST_R_R : and   t0, rax, rax'
commithead::src op[0] value is:4  arch reg:0 physical reg:112(flat:112)
commithead::src op[1] value is:4  arch reg:0 physical reg:112(flat:112)
commithead:: dest op[0] value is:0  arch reg:16 physical reg:16(flat:16)

resultvalue:4283433 T0 : 04283427 `  JNZ_I : rdip   t1, %ctrl153, '
commithead:: dest op[0] value is:4283433  arch reg:17 physical reg:111(flat:111)

resultvalue:18446744073709551335 T0 : 04283427 `  JNZ_I : limm   t2, 0xfffffffffffffee7'
commithead:: dest op[0] value is:18446744073709551335  arch reg:18 physical reg:104(flat:104)

resultvalue:0 T0 : 04283427 `  JNZ_I : wrip   , t1, t2'
commithead::src op[0] value is:4283433  arch reg:17 physical reg:111(flat:111)
commithead::src op[1] value is:18446744073709551335  arch reg:18 physical reg:104(flat:104)

resultvalue:3 T0 : 04283152 `  SUB_R_I : limm   t1, 0x3'
commithead:: dest op[0] value is:3  arch reg:17 physical reg:126(flat:126)

resultvalue:1 T0 : 04283152 `  SUB_R_I : sub   rax, rax, t1'
commithead::src op[0] value is:4  arch reg:0 physical reg:112(flat:112)
commithead::src op[1] value is:3  arch reg:17 physical reg:126(flat:126)
commithead:: dest op[0] value is:1  arch reg:0 physical reg:125(flat:125)

resultvalue:20 T0 : 04283156 `  CMP_R_I : limm   t1, 0x14'
commithead:: dest op[0] value is:20  arch reg:17 physical reg:124(flat:124)

resultvalue:18446744073709551597 T0 : 04283156 `  CMP_R_I : sub   t0, rax, t1'
commithead::src op[0] value is:1  arch reg:0 physical reg:125(flat:125)
commithead::src op[1] value is:20  arch reg:17 physical reg:124(flat:124)
commithead:: dest op[0] value is:0  arch reg:16 physical reg:16(flat:16)

resultvalue:4283162 T0 : 04283160 `  JNBE_I : rdip   t1, %ctrl153, '
commithead:: dest op[0] value is:4283162  arch reg:17 physical reg:123(flat:123)

resultvalue:38 T0 : 04283160 `  JNBE_I : limm   t2, 0x26'
commithead:: dest op[0] value is:38  arch reg:18 physical reg:122(flat:122)

resultvalue:0 T0 : 04283160 `  JNBE_I : wrip   , t1, t2'
commithead::src op[0] value is:4283162  arch reg:17 physical reg:123(flat:123)
commithead::src op[1] value is:38  arch reg:18 physical reg:122(flat:122)

resultvalue:4283200 T0 : 04283162 `  JMP_M : ld   t1, DS:[8*rax + 0x45eb80]'
commithead::src op[0] value is:1  arch reg:0 physical reg:125(flat:125)
commithead::src op[1] value is:0  arch reg:16 physical reg:16(flat:16)
commithead:: dest op[0] value is:4283200  arch reg:17 physical reg:117(flat:117)

resultvalue:0 T0 : 04283162 `  JMP_M : wripi   , t1, 0'
commithead::src op[0] value is:4283200  arch reg:17 physical reg:117(flat:117)

resultvalue:16 T0 : 04283200 `  ADD_R_I : limm   t1, 0x10'
commithead:: dest op[0] value is:16  arch reg:17 physical reg:186(flat:186)

resultvalue:140737488350896 T0 : 04283200 `  ADD_R_I : add   rdi, rdi, t1'
commithead::src op[0] value is:140737488350880  arch reg:7 physical reg:114(flat:114)
commithead::src op[1] value is:16  arch reg:17 physical reg:186(flat:186)
commithead:: dest op[0] value is:140737488350896  arch reg:7 physical reg:185(flat:185)

resultvalue:5 T0 : 04283204 `  MOV_R_M : ld   rax, DS:[rdi]'
commithead::src op[0] value is:0  arch reg:16 physical reg:16(flat:16)
commithead::src op[1] value is:140737488350896  arch reg:7 physical reg:185(flat:185)
commithead:: dest op[0] value is:5  arch reg:0 physical reg:184(flat:184)

resultvalue:5 T0 : 04283207 `  TEST_R_R : and   t0, rax, rax'
commithead::src op[0] value is:5  arch reg:0 physical reg:184(flat:184)
commithead::src op[1] value is:5  arch reg:0 physical reg:184(flat:184)
commithead:: dest op[0] value is:0  arch reg:16 physical reg:16(flat:16)

resultvalue:4283212 T0 : 04283210 `  JNZ_I : rdip   t1, %ctrl153, '
commithead:: dest op[0] value is:4283212  arch reg:17 physical reg:183(flat:183)

resultvalue:18446744073709551556 T0 : 04283210 `  JNZ_I : limm   t2, 0xffffffffffffffc4'
commithead:: dest op[0] value is:18446744073709551556  arch reg:18 physical reg:182(flat:182)

resultvalue:0 T0 : 04283210 `  JNZ_I : wrip   , t1, t2'
commithead::src op[0] value is:4283212  arch reg:17 physical reg:183(flat:183)
commithead::src op[1] value is:18446744073709551556  arch reg:18 physical reg:182(flat:182)

resultvalue:3 T0 : 04283152 `  SUB_R_I : limm   t1, 0x3'
commithead:: dest op[0] value is:3  arch reg:17 physical reg:176(flat:176)

resultvalue:2 T0 : 04283152 `  SUB_R_I : sub   rax, rax, t1'
commithead::src op[0] value is:5  arch reg:0 physical reg:184(flat:184)
commithead::src op[1] value is:3  arch reg:17 physical reg:176(flat:176)
commithead:: dest op[0] value is:2  arch reg:0 physical reg:175(flat:175)

resultvalue:20 T0 : 04283156 `  CMP_R_I : limm   t1, 0x14'
commithead:: dest op[0] value is:20  arch reg:17 physical reg:174(flat:174)

resultvalue:18446744073709551598 T0 : 04283156 `  CMP_R_I : sub   t0, rax, t1'
commithead::src op[0] value is:2  arch reg:0 physical reg:175(flat:175)
commithead::src op[1] value is:20  arch reg:17 physical reg:174(flat:174)
commithead:: dest op[0] value is:0  arch reg:16 physical reg:16(flat:16)

resultvalue:4283162 T0 : 04283160 `  JNBE_I : rdip   t1, %ctrl153, '
commithead:: dest op[0] value is:4283162  arch reg:17 physical reg:173(flat:173)

resultvalue:38 T0 : 04283160 `  JNBE_I : limm   t2, 0x26'
commithead:: dest op[0] value is:38  arch reg:18 physical reg:172(flat:172)

resultvalue:0 T0 : 04283160 `  JNBE_I : wrip   , t1, t2'
commithead::src op[0] value is:4283162  arch reg:17 physical reg:173(flat:173)
commithead::src op[1] value is:38  arch reg:18 physical reg:172(flat:172)

resultvalue:4283438 T0 : 04283162 `  JMP_M : ld   t1, DS:[8*rax + 0x45eb80]'
commithead::src op[0] value is:2  arch reg:0 physical reg:175(flat:175)
commithead::src op[1] value is:0  arch reg:16 physical reg:16(flat:16)
commithead:: dest op[0] value is:4283438  arch reg:17 physical reg:171(flat:171)

resultvalue:0 T0 : 04283162 `  JMP_M : wripi   , t1, 0'
commithead::src op[0] value is:4283438  arch reg:17 physical reg:171(flat:171)

resultvalue:5 T0 : 04283438 `  MOV_R_M : ld   rax, DS:[rdi + 0x8]'
commithead::src op[0] value is:0  arch reg:16 physical reg:16(flat:16)
commithead::src op[1] value is:140737488350896  arch reg:7 physical reg:185(flat:185)
commithead:: dest op[0] value is:5  arch reg:0 physical reg:155(flat:155)

resultvalue:16 T0 : 04283442 `  ADD_R_I : limm   t1, 0x10'
commithead:: dest op[0] value is:16  arch reg:17 physical reg:154(flat:154)

resultvalue:140737488350912 T0 : 04283442 `  ADD_R_I : add   rdi, rdi, t1'
commithead::src op[0] value is:140737488350896  arch reg:7 physical reg:185(flat:185)
commithead::src op[1] value is:16  arch reg:17 physical reg:154(flat:154)
commithead:: dest op[0] value is:140737488350912  arch reg:7 physical reg:153(flat:153)

resultvalue:4283453 T0 : 04283446 `  MOV_P_R : rdip   t7, %ctrl153, '
commithead:: dest op[0] value is:4283453  arch reg:23 physical reg:152(flat:152)

resultvalue:0 T0 : 04283446 `  MOV_P_R : st   rax, DS:[t7 + 0x17d8d3]'
commithead::src op[0] value is:0  arch reg:16 physical reg:16(flat:16)
commithead::src op[1] value is:4283453  arch reg:23 physical reg:152(flat:152)
commithead::src op[2] value is:5  arch reg:0 physical reg:155(flat:155)

resultvalue:7 T0 : 04283453 `  MOV_R_M : ld   rax, DS:[rdi]'
commithead::src op[0] value is:0  arch reg:16 physical reg:16(flat:16)
commithead::src op[1] value is:140737488350912  arch reg:7 physical reg:153(flat:153)
commithead:: dest op[0] value is:7  arch reg:0 physical reg:151(flat:151)

resultvalue:7 T0 : 04283456 `  TEST_R_R : and   t0, rax, rax'
commithead::src op[0] value is:7  arch reg:0 physical reg:151(flat:151)
commithead::src op[1] value is:7  arch reg:0 physical reg:151(flat:151)
commithead:: dest op[0] value is:0  arch reg:16 physical reg:16(flat:16)

resultvalue:4283465 T0 : 04283459 `  JNZ_I : rdip   t1, %ctrl153, '
commithead:: dest op[0] value is:4283465  arch reg:17 physical reg:150(flat:150)

resultvalue:18446744073709551303 T0 : 04283459 `  JNZ_I : limm   t2, 0xfffffffffffffec7'
commithead:: dest op[0] value is:18446744073709551303  arch reg:18 physical reg:149(flat:149)

resultvalue:0 T0 : 04283459 `  JNZ_I : wrip   , t1, t2'
commithead::src op[0] value is:4283465  arch reg:17 physical reg:150(flat:150)
commithead::src op[1] value is:18446744073709551303  arch reg:18 physical reg:149(flat:149)

resultvalue:3 T0 : 04283152 `  SUB_R_I : limm   t1, 0x3'
commithead:: dest op[0] value is:3  arch reg:17 physical reg:195(flat:195)

resultvalue:4 T0 : 04283152 `  SUB_R_I : sub   rax, rax, t1'
commithead::src op[0] value is:7  arch reg:0 physical reg:151(flat:151)
commithead::src op[1] value is:3  arch reg:17 physical reg:195(flat:195)
commithead:: dest op[0] value is:4  arch reg:0 physical reg:220(flat:220)

resultvalue:20 T0 : 04283156 `  CMP_R_I : limm   t1, 0x14'
commithead:: dest op[0] value is:20  arch reg:17 physical reg:222(flat:222)

resultvalue:18446744073709551600 T0 : 04283156 `  CMP_R_I : sub   t0, rax, t1'
commithead::src op[0] value is:4  arch reg:0 physical reg:220(flat:220)
commithead::src op[1] value is:20  arch reg:17 physical reg:222(flat:222)
commithead:: dest op[0] value is:0  arch reg:16 physical reg:16(flat:16)

resultvalue:4283162 T0 : 04283160 `  JNBE_I : rdip   t1, %ctrl153, '
commithead:: dest op[0] value is:4283162  arch reg:17 physical reg:197(flat:197)

resultvalue:38 T0 : 04283160 `  JNBE_I : limm   t2, 0x26'
commithead:: dest op[0] value is:38  arch reg:18 physical reg:240(flat:240)

resultvalue:0 T0 : 04283160 `  JNBE_I : wrip   , t1, t2'
commithead::src op[0] value is:4283162  arch reg:17 physical reg:197(flat:197)
commithead::src op[1] value is:38  arch reg:18 physical reg:240(flat:240)

resultvalue:4283200 T0 : 04283162 `  JMP_M : ld   t1, DS:[8*rax + 0x45eb80]'
commithead::src op[0] value is:4  arch reg:0 physical reg:220(flat:220)
commithead::src op[1] value is:0  arch reg:16 physical reg:16(flat:16)
commithead:: dest op[0] value is:4283200  arch reg:17 physical reg:239(flat:239)

resultvalue:0 T0 : 04283162 `  JMP_M : wripi   , t1, 0'
commithead::src op[0] value is:4283200  arch reg:17 physical reg:239(flat:239)

resultvalue:16 T0 : 04283200 `  ADD_R_I : limm   t1, 0x10'
commithead:: dest op[0] value is:16  arch reg:17 physical reg:225(flat:225)

resultvalue:140737488350928 T0 : 04283200 `  ADD_R_I : add   rdi, rdi, t1'
commithead::src op[0] value is:140737488350912  arch reg:7 physical reg:153(flat:153)
commithead::src op[1] value is:16  arch reg:17 physical reg:225(flat:225)
commithead:: dest op[0] value is:140737488350928  arch reg:7 physical reg:193(flat:193)

resultvalue:8 T0 : 04283204 `  MOV_R_M : ld   rax, DS:[rdi]'
commithead::src op[0] value is:0  arch reg:16 physical reg:16(flat:16)
commithead::src op[1] value is:140737488350928  arch reg:7 physical reg:193(flat:193)
commithead:: dest op[0] value is:8  arch reg:0 physical reg:194(flat:194)

resultvalue:8 T0 : 04283207 `  TEST_R_R : and   t0, rax, rax'
commithead::src op[0] value is:8  arch reg:0 physical reg:194(flat:194)
commithead::src op[1] value is:8  arch reg:0 physical reg:194(flat:194)
commithead:: dest op[0] value is:0  arch reg:16 physical reg:16(flat:16)

resultvalue:4283212 T0 : 04283210 `  JNZ_I : rdip   t1, %ctrl153, '
commithead:: dest op[0] value is:4283212  arch reg:17 physical reg:241(flat:241)

resultvalue:18446744073709551556 T0 : 04283210 `  JNZ_I : limm   t2, 0xffffffffffffffc4'
commithead:: dest op[0] value is:18446744073709551556  arch reg:18 physical reg:41(flat:41)

resultvalue:0 T0 : 04283210 `  JNZ_I : wrip   , t1, t2'
commithead::src op[0] value is:4283212  arch reg:17 physical reg:241(flat:241)
commithead::src op[1] value is:18446744073709551556  arch reg:18 physical reg:41(flat:41)

resultvalue:3 T0 : 04283152 `  SUB_R_I : limm   t1, 0x3'
commithead:: dest op[0] value is:3  arch reg:17 physical reg:9(flat:9)

resultvalue:5 T0 : 04283152 `  SUB_R_I : sub   rax, rax, t1'
commithead::src op[0] value is:8  arch reg:0 physical reg:194(flat:194)
commithead::src op[1] value is:3  arch reg:17 physical reg:9(flat:9)
commithead:: dest op[0] value is:5  arch reg:0 physical reg:5(flat:5)

resultvalue:20 T0 : 04283156 `  CMP_R_I : limm   t1, 0x14'
commithead:: dest op[0] value is:20  arch reg:17 physical reg:255(flat:255)

resultvalue:18446744073709551601 T0 : 04283156 `  CMP_R_I : sub   t0, rax, t1'
commithead::src op[0] value is:5  arch reg:0 physical reg:5(flat:5)
commithead::src op[1] value is:20  arch reg:17 physical reg:255(flat:255)
commithead:: dest op[0] value is:0  arch reg:16 physical reg:16(flat:16)

resultvalue:4283162 T0 : 04283160 `  JNBE_I : rdip   t1, %ctrl153, '
commithead:: dest op[0] value is:4283162  arch reg:17 physical reg:254(flat:254)

resultvalue:38 T0 : 04283160 `  JNBE_I : limm   t2, 0x26'
commithead:: dest op[0] value is:38  arch reg:18 physical reg:253(flat:253)

resultvalue:0 T0 : 04283160 `  JNBE_I : wrip   , t1, t2'
commithead::src op[0] value is:4283162  arch reg:17 physical reg:254(flat:254)
commithead::src op[1] value is:38  arch reg:18 physical reg:253(flat:253)

resultvalue:4283200 T0 : 04283162 `  JMP_M : ld   t1, DS:[8*rax + 0x45eb80]'
commithead::src op[0] value is:5  arch reg:0 physical reg:5(flat:5)
commithead::src op[1] value is:0  arch reg:16 physical reg:16(flat:16)
commithead:: dest op[0] value is:4283200  arch reg:17 physical reg:252(flat:252)

resultvalue:0 T0 : 04283162 `  JMP_M : wripi   , t1, 0'
commithead::src op[0] value is:4283200  arch reg:17 physical reg:252(flat:252)

resultvalue:16 T0 : 04283200 `  ADD_R_I : limm   t1, 0x10'
commithead:: dest op[0] value is:16  arch reg:17 physical reg:61(flat:61)

resultvalue:140737488350944 T0 : 04283200 `  ADD_R_I : add   rdi, rdi, t1'
commithead::src op[0] value is:140737488350928  arch reg:7 physical reg:193(flat:193)
commithead::src op[1] value is:16  arch reg:17 physical reg:61(flat:61)
commithead:: dest op[0] value is:140737488350944  arch reg:7 physical reg:59(flat:59)

resultvalue:9 T0 : 04283204 `  MOV_R_M : ld   rax, DS:[rdi]'
commithead::src op[0] value is:0  arch reg:16 physical reg:16(flat:16)
commithead::src op[1] value is:140737488350944  arch reg:7 physical reg:59(flat:59)
commithead:: dest op[0] value is:9  arch reg:0 physical reg:57(flat:57)

resultvalue:9 T0 : 04283207 `  TEST_R_R : and   t0, rax, rax'
commithead::src op[0] value is:9  arch reg:0 physical reg:57(flat:57)
commithead::src op[1] value is:9  arch reg:0 physical reg:57(flat:57)
commithead:: dest op[0] value is:0  arch reg:16 physical reg:16(flat:16)

resultvalue:4283212 T0 : 04283210 `  JNZ_I : rdip   t1, %ctrl153, '
commithead:: dest op[0] value is:4283212  arch reg:17 physical reg:13(flat:13)

resultvalue:18446744073709551556 T0 : 04283210 `  JNZ_I : limm   t2, 0xffffffffffffffc4'
commithead:: dest op[0] value is:18446744073709551556  arch reg:18 physical reg:54(flat:54)

resultvalue:0 T0 : 04283210 `  JNZ_I : wrip   , t1, t2'
commithead::src op[0] value is:4283212  arch reg:17 physical reg:13(flat:13)
commithead::src op[1] value is:18446744073709551556  arch reg:18 physical reg:54(flat:54)

resultvalue:3 T0 : 04283152 `  SUB_R_I : limm   t1, 0x3'
commithead:: dest op[0] value is:3  arch reg:17 physical reg:23(flat:23)

resultvalue:6 T0 : 04283152 `  SUB_R_I : sub   rax, rax, t1'
commithead::src op[0] value is:9  arch reg:0 physical reg:57(flat:57)
commithead::src op[1] value is:3  arch reg:17 physical reg:23(flat:23)
commithead:: dest op[0] value is:6  arch reg:0 physical reg:1(flat:1)

resultvalue:20 T0 : 04283156 `  CMP_R_I : limm   t1, 0x14'
commithead:: dest op[0] value is:20  arch reg:17 physical reg:46(flat:46)

resultvalue:18446744073709551602 T0 : 04283156 `  CMP_R_I : sub   t0, rax, t1'
commithead::src op[0] value is:6  arch reg:0 physical reg:1(flat:1)
commithead::src op[1] value is:20  arch reg:17 physical reg:46(flat:46)
commithead:: dest op[0] value is:0  arch reg:16 physical reg:16(flat:16)

resultvalue:4283162 T0 : 04283160 `  JNBE_I : rdip   t1, %ctrl153, '
commithead:: dest op[0] value is:4283162  arch reg:17 physical reg:44(flat:44)

resultvalue:38 T0 : 04283160 `  JNBE_I : limm   t2, 0x26'
commithead:: dest op[0] value is:38  arch reg:18 physical reg:243(flat:243)

resultvalue:0 T0 : 04283160 `  JNBE_I : wrip   , t1, t2'
commithead::src op[0] value is:4283162  arch reg:17 physical reg:44(flat:44)
commithead::src op[1] value is:38  arch reg:18 physical reg:243(flat:243)

resultvalue:4283200 T0 : 04283162 `  JMP_M : ld   t1, DS:[8*rax + 0x45eb80]'
commithead::src op[0] value is:6  arch reg:0 physical reg:1(flat:1)
commithead::src op[1] value is:0  arch reg:16 physical reg:16(flat:16)
commithead:: dest op[0] value is:4283200  arch reg:17 physical reg:244(flat:244)

resultvalue:0 T0 : 04283162 `  JMP_M : wripi   , t1, 0'
commithead::src op[0] value is:4283200  arch reg:17 physical reg:244(flat:244)

resultvalue:16 T0 : 04283200 `  ADD_R_I : limm   t1, 0x10'
commithead:: dest op[0] value is:16  arch reg:17 physical reg:52(flat:52)

resultvalue:140737488350960 T0 : 04283200 `  ADD_R_I : add   rdi, rdi, t1'
commithead::src op[0] value is:140737488350944  arch reg:7 physical reg:59(flat:59)
commithead::src op[1] value is:16  arch reg:17 physical reg:52(flat:52)
commithead:: dest op[0] value is:140737488350960  arch reg:7 physical reg:89(flat:89)

resultvalue:11 T0 : 04283204 `  MOV_R_M : ld   rax, DS:[rdi]'
commithead::src op[0] value is:0  arch reg:16 physical reg:16(flat:16)
commithead::src op[1] value is:140737488350960  arch reg:7 physical reg:89(flat:89)
commithead:: dest op[0] value is:11  arch reg:0 physical reg:87(flat:87)

resultvalue:11 T0 : 04283207 `  TEST_R_R : and   t0, rax, rax'
commithead::src op[0] value is:11  arch reg:0 physical reg:87(flat:87)
commithead::src op[1] value is:11  arch reg:0 physical reg:87(flat:87)
commithead:: dest op[0] value is:0  arch reg:16 physical reg:16(flat:16)

resultvalue:4283212 T0 : 04283210 `  JNZ_I : rdip   t1, %ctrl153, '
commithead:: dest op[0] value is:4283212  arch reg:17 physical reg:72(flat:72)

resultvalue:18446744073709551556 T0 : 04283210 `  JNZ_I : limm   t2, 0xffffffffffffffc4'
commithead:: dest op[0] value is:18446744073709551556  arch reg:18 physical reg:79(flat:79)

resultvalue:0 T0 : 04283210 `  JNZ_I : wrip   , t1, t2'
commithead::src op[0] value is:4283212  arch reg:17 physical reg:72(flat:72)
commithead::src op[1] value is:18446744073709551556  arch reg:18 physical reg:79(flat:79)

resultvalue:3 T0 : 04283152 `  SUB_R_I : limm   t1, 0x3'
commithead:: dest op[0] value is:3  arch reg:17 physical reg:65(flat:65)

resultvalue:8 T0 : 04283152 `  SUB_R_I : sub   rax, rax, t1'
commithead::src op[0] value is:11  arch reg:0 physical reg:87(flat:87)
commithead::src op[1] value is:3  arch reg:17 physical reg:65(flat:65)
commithead:: dest op[0] value is:8  arch reg:0 physical reg:74(flat:74)

resultvalue:20 T0 : 04283156 `  CMP_R_I : limm   t1, 0x14'
commithead:: dest op[0] value is:20  arch reg:17 physical reg:78(flat:78)

resultvalue:18446744073709551604 T0 : 04283156 `  CMP_R_I : sub   t0, rax, t1'
commithead::src op[0] value is:8  arch reg:0 physical reg:74(flat:74)
commithead::src op[1] value is:20  arch reg:17 physical reg:78(flat:78)
commithead:: dest op[0] value is:0  arch reg:16 physical reg:16(flat:16)

resultvalue:4283162 T0 : 04283160 `  JNBE_I : rdip   t1, %ctrl153, '
commithead:: dest op[0] value is:4283162  arch reg:17 physical reg:70(flat:70)

resultvalue:38 T0 : 04283160 `  JNBE_I : limm   t2, 0x26'
commithead:: dest op[0] value is:38  arch reg:18 physical reg:76(flat:76)

resultvalue:0 T0 : 04283160 `  JNBE_I : wrip   , t1, t2'
commithead::src op[0] value is:4283162  arch reg:17 physical reg:70(flat:70)
commithead::src op[1] value is:38  arch reg:18 physical reg:76(flat:76)

resultvalue:4283347 T0 : 04283162 `  JMP_M : ld   t1, DS:[8*rax + 0x45eb80]'
commithead::src op[0] value is:8  arch reg:0 physical reg:74(flat:74)
commithead::src op[1] value is:0  arch reg:16 physical reg:16(flat:16)
commithead:: dest op[0] value is:4283347  arch reg:17 physical reg:66(flat:66)

resultvalue:0 T0 : 04283162 `  JMP_M : wripi   , t1, 0'
commithead::src op[0] value is:4283347  arch reg:17 physical reg:66(flat:66)

resultvalue:100 T0 : 04283347 `  XOR_R_M : ld   t1d, DS:[rdi + 0x8]'
commithead::src op[0] value is:0  arch reg:16 physical reg:16(flat:16)
commithead::src op[1] value is:140737488350960  arch reg:7 physical reg:89(flat:89)
commithead:: dest op[0] value is:100  arch reg:17 physical reg:100(flat:100)

resultvalue:100 T0 : 04283347 `  XOR_R_M : xor   ecx, ecx, t1d'
commithead::src op[0] value is:0  arch reg:1 physical reg:102(flat:102)
commithead::src op[1] value is:100  arch reg:17 physical reg:100(flat:100)
commithead:: dest op[0] value is:100  arch reg:1 physical reg:115(flat:115)

resultvalue:16 T0 : 04283350 `  ADD_R_I : limm   t1, 0x10'
commithead:: dest op[0] value is:16  arch reg:17 physical reg:85(flat:85)

resultvalue:140737488350976 T0 : 04283350 `  ADD_R_I : add   rdi, rdi, t1'
commithead::src op[0] value is:140737488350960  arch reg:7 physical reg:89(flat:89)
commithead::src op[1] value is:16  arch reg:17 physical reg:85(flat:85)
commithead:: dest op[0] value is:140737488350976  arch reg:7 physical reg:111(flat:111)

resultvalue:1 T0 : 04283354 `  OR_R_I : limm   t1d, 0x1'
commithead:: dest op[0] value is:1  arch reg:17 physical reg:112(flat:112)

resultvalue:1 T0 : 04283354 `  OR_R_I : or   edx, edx, t1d'
commithead::src op[0] value is:0  arch reg:2 physical reg:101(flat:101)
commithead::src op[1] value is:1  arch reg:17 physical reg:112(flat:112)
commithead:: dest op[0] value is:1  arch reg:2 physical reg:126(flat:126)

resultvalue:12 T0 : 04283357 `  MOV_R_M : ld   rax, DS:[rdi]'
commithead::src op[0] value is:0  arch reg:16 physical reg:16(flat:16)
commithead::src op[1] value is:140737488350976  arch reg:7 physical reg:111(flat:111)
commithead:: dest op[0] value is:12  arch reg:0 physical reg:124(flat:124)

resultvalue:12 T0 : 04283360 `  TEST_R_R : and   t0, rax, rax'
commithead::src op[0] value is:12  arch reg:0 physical reg:124(flat:124)
commithead::src op[1] value is:12  arch reg:0 physical reg:124(flat:124)
commithead:: dest op[0] value is:0  arch reg:16 physical reg:16(flat:16)

resultvalue:4283369 T0 : 04283363 `  JNZ_I : rdip   t1, %ctrl153, '
commithead:: dest op[0] value is:4283369  arch reg:17 physical reg:104(flat:104)

resultvalue:18446744073709551399 T0 : 04283363 `  JNZ_I : limm   t2, 0xffffffffffffff27'
commithead:: dest op[0] value is:18446744073709551399  arch reg:18 physical reg:187(flat:187)

resultvalue:0 T0 : 04283363 `  JNZ_I : wrip   , t1, t2'
commithead::src op[0] value is:4283369  arch reg:17 physical reg:104(flat:104)
commithead::src op[1] value is:18446744073709551399  arch reg:18 physical reg:187(flat:187)

resultvalue:3 T0 : 04283152 `  SUB_R_I : limm   t1, 0x3'
commithead:: dest op[0] value is:3  arch reg:17 physical reg:204(flat:204)

resultvalue:9 T0 : 04283152 `  SUB_R_I : sub   rax, rax, t1'
commithead::src op[0] value is:12  arch reg:0 physical reg:124(flat:124)
commithead::src op[1] value is:3  arch reg:17 physical reg:204(flat:204)
commithead:: dest op[0] value is:9  arch reg:0 physical reg:205(flat:205)

resultvalue:20 T0 : 04283156 `  CMP_R_I : limm   t1, 0x14'
commithead:: dest op[0] value is:20  arch reg:17 physical reg:206(flat:206)

resultvalue:18446744073709551605 T0 : 04283156 `  CMP_R_I : sub   t0, rax, t1'
commithead::src op[0] value is:9  arch reg:0 physical reg:205(flat:205)
commithead::src op[1] value is:20  arch reg:17 physical reg:206(flat:206)
commithead:: dest op[0] value is:0  arch reg:16 physical reg:16(flat:16)

resultvalue:4283162 T0 : 04283160 `  JNBE_I : rdip   t1, %ctrl153, '
commithead:: dest op[0] value is:4283162  arch reg:17 physical reg:155(flat:155)

resultvalue:38 T0 : 04283160 `  JNBE_I : limm   t2, 0x26'
commithead:: dest op[0] value is:38  arch reg:18 physical reg:196(flat:196)

resultvalue:0 T0 : 04283160 `  JNBE_I : wrip   , t1, t2'
commithead::src op[0] value is:4283162  arch reg:17 physical reg:155(flat:155)
commithead::src op[1] value is:38  arch reg:18 physical reg:196(flat:196)

resultvalue:4283320 T0 : 04283162 `  JMP_M : ld   t1, DS:[8*rax + 0x45eb80]'
commithead::src op[0] value is:9  arch reg:0 physical reg:205(flat:205)
commithead::src op[1] value is:0  arch reg:16 physical reg:16(flat:16)
commithead:: dest op[0] value is:4283320  arch reg:17 physical reg:207(flat:207)

resultvalue:0 T0 : 04283162 `  JMP_M : wripi   , t1, 0'
commithead::src op[0] value is:4283320  arch reg:17 physical reg:207(flat:207)

resultvalue:100 T0 : 04283320 `  XOR_R_M : ld   t1d, DS:[rdi + 0x8]'
commithead::src op[0] value is:0  arch reg:16 physical reg:16(flat:16)
commithead::src op[1] value is:140737488350976  arch reg:7 physical reg:111(flat:111)
commithead:: dest op[0] value is:100  arch reg:17 physical reg:148(flat:148)

resultvalue:0 T0 : 04283320 `  XOR_R_M : xor   ecx, ecx, t1d'
commithead::src op[0] value is:100  arch reg:1 physical reg:115(flat:115)
commithead::src op[1] value is:100  arch reg:17 physical reg:148(flat:148)
commithead:: dest op[0] value is:0  arch reg:1 physical reg:154(flat:154)

resultvalue:16 T0 : 04283323 `  ADD_R_I : limm   t1, 0x10'
commithead:: dest op[0] value is:16  arch reg:17 physical reg:172(flat:172)

resultvalue:140737488350992 T0 : 04283323 `  ADD_R_I : add   rdi, rdi, t1'
commithead::src op[0] value is:140737488350976  arch reg:7 physical reg:111(flat:111)
commithead::src op[1] value is:16  arch reg:17 physical reg:172(flat:172)
commithead:: dest op[0] value is:140737488350992  arch reg:7 physical reg:150(flat:150)

resultvalue:2 T0 : 04283327 `  OR_R_I : limm   t1d, 0x2'
commithead:: dest op[0] value is:2  arch reg:17 physical reg:151(flat:151)

resultvalue:3 T0 : 04283327 `  OR_R_I : or   edx, edx, t1d'
commithead::src op[0] value is:1  arch reg:2 physical reg:126(flat:126)
commithead::src op[1] value is:2  arch reg:17 physical reg:151(flat:151)
commithead:: dest op[0] value is:3  arch reg:2 physical reg:195(flat:195)

resultvalue:13 T0 : 04283330 `  MOV_R_M : ld   rax, DS:[rdi]'
commithead::src op[0] value is:0  arch reg:16 physical reg:16(flat:16)
commithead::src op[1] value is:140737488350992  arch reg:7 physical reg:150(flat:150)
commithead:: dest op[0] value is:13  arch reg:0 physical reg:222(flat:222)

resultvalue:13 T0 : 04283333 `  TEST_R_R : and   t0, rax, rax'
commithead::src op[0] value is:13  arch reg:0 physical reg:222(flat:222)
commithead::src op[1] value is:13  arch reg:0 physical reg:222(flat:222)
commithead:: dest op[0] value is:0  arch reg:16 physical reg:16(flat:16)

resultvalue:4283342 T0 : 04283336 `  JNZ_I : rdip   t1, %ctrl153, '
commithead:: dest op[0] value is:4283342  arch reg:17 physical reg:149(flat:149)

resultvalue:18446744073709551426 T0 : 04283336 `  JNZ_I : limm   t2, 0xffffffffffffff42'
commithead:: dest op[0] value is:18446744073709551426  arch reg:18 physical reg:221(flat:221)

resultvalue:0 T0 : 04283336 `  JNZ_I : wrip   , t1, t2'
commithead::src op[0] value is:4283342  arch reg:17 physical reg:149(flat:149)
commithead::src op[1] value is:18446744073709551426  arch reg:18 physical reg:221(flat:221)

resultvalue:3 T0 : 04283152 `  SUB_R_I : limm   t1, 0x3'
commithead:: dest op[0] value is:3  arch reg:17 physical reg:4(flat:4)

resultvalue:10 T0 : 04283152 `  SUB_R_I : sub   rax, rax, t1'
commithead::src op[0] value is:13  arch reg:0 physical reg:222(flat:222)
commithead::src op[1] value is:3  arch reg:17 physical reg:4(flat:4)
commithead:: dest op[0] value is:10  arch reg:0 physical reg:6(flat:6)

resultvalue:20 T0 : 04283156 `  CMP_R_I : limm   t1, 0x14'
commithead:: dest op[0] value is:20  arch reg:17 physical reg:2(flat:2)

resultvalue:18446744073709551606 T0 : 04283156 `  CMP_R_I : sub   t0, rax, t1'
commithead::src op[0] value is:10  arch reg:0 physical reg:6(flat:6)
commithead::src op[1] value is:20  arch reg:17 physical reg:2(flat:2)
commithead:: dest op[0] value is:0  arch reg:16 physical reg:16(flat:16)

resultvalue:4283162 T0 : 04283160 `  JNBE_I : rdip   t1, %ctrl153, '
commithead:: dest op[0] value is:4283162  arch reg:17 physical reg:40(flat:40)

resultvalue:38 T0 : 04283160 `  JNBE_I : limm   t2, 0x26'
commithead:: dest op[0] value is:38  arch reg:18 physical reg:225(flat:225)

resultvalue:0 T0 : 04283160 `  JNBE_I : wrip   , t1, t2'
commithead::src op[0] value is:4283162  arch reg:17 physical reg:40(flat:40)
commithead::src op[1] value is:38  arch reg:18 physical reg:225(flat:225)

resultvalue:4283296 T0 : 04283162 `  JMP_M : ld   t1, DS:[8*rax + 0x45eb80]'
commithead::src op[0] value is:10  arch reg:0 physical reg:6(flat:6)
commithead::src op[1] value is:0  arch reg:16 physical reg:16(flat:16)
commithead:: dest op[0] value is:4283296  arch reg:17 physical reg:240(flat:240)

resultvalue:0 T0 : 04283162 `  JMP_M : wripi   , t1, 0'
commithead::src op[0] value is:4283296  arch reg:17 physical reg:240(flat:240)

resultvalue:100 T0 : 04283296 `  XOR_R_M : ld   t1d, DS:[rdi + 0x8]'
commithead::src op[0] value is:0  arch reg:16 physical reg:16(flat:16)
commithead::src op[1] value is:140737488350992  arch reg:7 physical reg:150(flat:150)
commithead:: dest op[0] value is:100  arch reg:17 physical reg:250(flat:250)

resultvalue:100 T0 : 04283296 `  XOR_R_M : xor   esi, esi, t1d'
commithead::src op[0] value is:0  arch reg:6 physical reg:103(flat:103)
commithead::src op[1] value is:100  arch reg:17 physical reg:250(flat:250)
commithead:: dest op[0] value is:100  arch reg:6 physical reg:251(flat:251)

resultvalue:16 T0 : 04283299 `  ADD_R_I : limm   t1, 0x10'
commithead:: dest op[0] value is:16  arch reg:17 physical reg:254(flat:254)

resultvalue:140737488351008 T0 : 04283299 `  ADD_R_I : add   rdi, rdi, t1'
commithead::src op[0] value is:140737488350992  arch reg:7 physical reg:150(flat:150)
commithead::src op[1] value is:16  arch reg:17 physical reg:254(flat:254)
commithead:: dest op[0] value is:140737488351008  arch reg:7 physical reg:252(flat:252)

resultvalue:4 T0 : 04283303 `  OR_R_I : limm   t1d, 0x4'
commithead:: dest op[0] value is:4  arch reg:17 physical reg:5(flat:5)

resultvalue:7 T0 : 04283303 `  OR_R_I : or   edx, edx, t1d'
commithead::src op[0] value is:3  arch reg:2 physical reg:195(flat:195)
commithead::src op[1] value is:4  arch reg:17 physical reg:5(flat:5)
commithead:: dest op[0] value is:7  arch reg:2 physical reg:47(flat:47)

resultvalue:14 T0 : 04283306 `  MOV_R_M : ld   rax, DS:[rdi]'
commithead::src op[0] value is:0  arch reg:16 physical reg:16(flat:16)
commithead::src op[1] value is:140737488351008  arch reg:7 physical reg:252(flat:252)
commithead:: dest op[0] value is:14  arch reg:0 physical reg:53(flat:53)

resultvalue:14 T0 : 04283309 `  TEST_R_R : and   t0, rax, rax'
commithead::src op[0] value is:14  arch reg:0 physical reg:53(flat:53)
commithead::src op[1] value is:14  arch reg:0 physical reg:53(flat:53)
commithead:: dest op[0] value is:0  arch reg:16 physical reg:16(flat:16)

resultvalue:4283318 T0 : 04283312 `  JNZ_I : rdip   t1, %ctrl153, '
commithead:: dest op[0] value is:4283318  arch reg:17 physical reg:0(flat:0)

resultvalue:18446744073709551450 T0 : 04283312 `  JNZ_I : limm   t2, 0xffffffffffffff5a'
commithead:: dest op[0] value is:18446744073709551450  arch reg:18 physical reg:15(flat:15)

resultvalue:0 T0 : 04283312 `  JNZ_I : wrip   , t1, t2'
commithead::src op[0] value is:4283318  arch reg:17 physical reg:0(flat:0)
commithead::src op[1] value is:18446744073709551450  arch reg:18 physical reg:15(flat:15)

resultvalue:3 T0 : 04283152 `  SUB_R_I : limm   t1, 0x3'
commithead:: dest op[0] value is:3  arch reg:17 physical reg:44(flat:44)

resultvalue:11 T0 : 04283152 `  SUB_R_I : sub   rax, rax, t1'
commithead::src op[0] value is:14  arch reg:0 physical reg:53(flat:53)
commithead::src op[1] value is:3  arch reg:17 physical reg:44(flat:44)
commithead:: dest op[0] value is:11  arch reg:0 physical reg:244(flat:244)

resultvalue:20 T0 : 04283156 `  CMP_R_I : limm   t1, 0x14'
commithead:: dest op[0] value is:20  arch reg:17 physical reg:59(flat:59)

resultvalue:18446744073709551607 T0 : 04283156 `  CMP_R_I : sub   t0, rax, t1'
commithead::src op[0] value is:11  arch reg:0 physical reg:244(flat:244)
commithead::src op[1] value is:20  arch reg:17 physical reg:59(flat:59)
commithead:: dest op[0] value is:0  arch reg:16 physical reg:16(flat:16)

resultvalue:4283162 T0 : 04283160 `  JNBE_I : rdip   t1, %ctrl153, '
commithead:: dest op[0] value is:4283162  arch reg:17 physical reg:1(flat:1)

resultvalue:38 T0 : 04283160 `  JNBE_I : limm   t2, 0x26'
commithead:: dest op[0] value is:38  arch reg:18 physical reg:49(flat:49)

resultvalue:0 T0 : 04283160 `  JNBE_I : wrip   , t1, t2'
commithead::src op[0] value is:4283162  arch reg:17 physical reg:1(flat:1)
commithead::src op[1] value is:38  arch reg:18 physical reg:49(flat:49)

resultvalue:4283272 T0 : 04283162 `  JMP_M : ld   t1, DS:[8*rax + 0x45eb80]'
commithead::src op[0] value is:11  arch reg:0 physical reg:244(flat:244)
commithead::src op[1] value is:0  arch reg:16 physical reg:16(flat:16)
commithead:: dest op[0] value is:4283272  arch reg:17 physical reg:42(flat:42)

resultvalue:0 T0 : 04283162 `  JMP_M : wripi   , t1, 0'
commithead::src op[0] value is:4283272  arch reg:17 physical reg:42(flat:42)

resultvalue:100 T0 : 04283272 `  XOR_R_M : ld   t1d, DS:[rdi + 0x8]'
commithead::src op[0] value is:0  arch reg:16 physical reg:16(flat:16)
commithead::src op[1] value is:140737488351008  arch reg:7 physical reg:252(flat:252)
commithead:: dest op[0] value is:100  arch reg:17 physical reg:86(flat:86)

resultvalue:0 T0 : 04283272 `  XOR_R_M : xor   esi, esi, t1d'
commithead::src op[0] value is:100  arch reg:6 physical reg:251(flat:251)
commithead::src op[1] value is:100  arch reg:17 physical reg:86(flat:86)
commithead:: dest op[0] value is:0  arch reg:6 physical reg:83(flat:83)

resultvalue:16 T0 : 04283275 `  ADD_R_I : limm   t1, 0x10'
commithead:: dest op[0] value is:16  arch reg:17 physical reg:71(flat:71)

resultvalue:140737488351024 T0 : 04283275 `  ADD_R_I : add   rdi, rdi, t1'
commithead::src op[0] value is:140737488351008  arch reg:7 physical reg:252(flat:252)
commithead::src op[1] value is:16  arch reg:17 physical reg:71(flat:71)
commithead:: dest op[0] value is:140737488351024  arch reg:7 physical reg:69(flat:69)

resultvalue:8 T0 : 04283279 `  OR_R_I : limm   t1d, 0x8'
commithead:: dest op[0] value is:8  arch reg:17 physical reg:70(flat:70)

resultvalue:15 T0 : 04283279 `  OR_R_I : or   edx, edx, t1d'
commithead::src op[0] value is:7  arch reg:2 physical reg:47(flat:47)
commithead::src op[1] value is:8  arch reg:17 physical reg:70(flat:70)
commithead:: dest op[0] value is:15  arch reg:2 physical reg:174(flat:174)

resultvalue:23 T0 : 04283282 `  MOV_R_M : ld   rax, DS:[rdi]'
commithead::src op[0] value is:0  arch reg:16 physical reg:16(flat:16)
commithead::src op[1] value is:140737488351024  arch reg:7 physical reg:69(flat:69)
commithead:: dest op[0] value is:23  arch reg:0 physical reg:176(flat:176)

resultvalue:23 T0 : 04283285 `  TEST_R_R : and   t0, rax, rax'
commithead::src op[0] value is:23  arch reg:0 physical reg:176(flat:176)
commithead::src op[1] value is:23  arch reg:0 physical reg:176(flat:176)
commithead:: dest op[0] value is:0  arch reg:16 physical reg:16(flat:16)

resultvalue:4283294 T0 : 04283288 `  JNZ_I : rdip   t1, %ctrl153, '
commithead:: dest op[0] value is:4283294  arch reg:17 physical reg:184(flat:184)

resultvalue:18446744073709551474 T0 : 04283288 `  JNZ_I : limm   t2, 0xffffffffffffff72'
commithead:: dest op[0] value is:18446744073709551474  arch reg:18 physical reg:183(flat:183)

resultvalue:0 T0 : 04283288 `  JNZ_I : wrip   , t1, t2'
commithead::src op[0] value is:4283294  arch reg:17 physical reg:184(flat:184)
commithead::src op[1] value is:18446744073709551474  arch reg:18 physical reg:183(flat:183)

resultvalue:3 T0 : 04283152 `  SUB_R_I : limm   t1, 0x3'
commithead:: dest op[0] value is:3  arch reg:17 physical reg:66(flat:66)

resultvalue:20 T0 : 04283152 `  SUB_R_I : sub   rax, rax, t1'
commithead::src op[0] value is:23  arch reg:0 physical reg:176(flat:176)
commithead::src op[1] value is:3  arch reg:17 physical reg:66(flat:66)
commithead:: dest op[0] value is:20  arch reg:0 physical reg:100(flat:100)

resultvalue:20 T0 : 04283156 `  CMP_R_I : limm   t1, 0x14'
commithead:: dest op[0] value is:20  arch reg:17 physical reg:89(flat:89)

resultvalue:0 T0 : 04283156 `  CMP_R_I : sub   t0, rax, t1'
commithead::src op[0] value is:20  arch reg:0 physical reg:100(flat:100)
commithead::src op[1] value is:20  arch reg:17 physical reg:89(flat:89)
commithead:: dest op[0] value is:0  arch reg:16 physical reg:16(flat:16)

resultvalue:4283162 T0 : 04283160 `  JNBE_I : rdip   t1, %ctrl153, '
commithead:: dest op[0] value is:4283162  arch reg:17 physical reg:85(flat:85)

resultvalue:38 T0 : 04283160 `  JNBE_I : limm   t2, 0x26'
commithead:: dest op[0] value is:38  arch reg:18 physical reg:202(flat:202)

resultvalue:0 T0 : 04283160 `  JNBE_I : wrip   , t1, t2'
commithead::src op[0] value is:4283162  arch reg:17 physical reg:85(flat:85)
commithead::src op[1] value is:38  arch reg:18 physical reg:202(flat:202)

resultvalue:4283169 T0 : 04283162 `  JMP_M : ld   t1, DS:[8*rax + 0x45eb80]'
commithead::src op[0] value is:20  arch reg:0 physical reg:100(flat:100)
commithead::src op[1] value is:0  arch reg:16 physical reg:16(flat:16)
commithead:: dest op[0] value is:4283169  arch reg:17 physical reg:201(flat:201)

resultvalue:0 T0 : 04283162 `  JMP_M : wripi   , t1, 0'
commithead::src op[0] value is:4283169  arch reg:17 physical reg:201(flat:201)

resultvalue:0 T0 : 04283169 `  MOV_R_M : ld   rax, DS:[rdi + 0x8]'
commithead::src op[0] value is:0  arch reg:16 physical reg:16(flat:16)
commithead::src op[1] value is:140737488351024  arch reg:7 physical reg:69(flat:69)
commithead:: dest op[0] value is:0  arch reg:0 physical reg:200(flat:200)

resultvalue:4294967295 T0 : 04283173 `  MOV_R_I : limm   edx, 0xffffffffffffffff'
commithead:: dest op[0] value is:4294967295  arch reg:2 physical reg:199(flat:199)

resultvalue:4283188 T0 : 04283178 `  MOV_P_I : rdip   t7d, %ctrl153, '
commithead:: dest op[0] value is:4283188  arch reg:23 physical reg:198(flat:198)

resultvalue:1 T0 : 04283178 `  MOV_P_I : limm   t1d, 0x1'
commithead:: dest op[0] value is:1  arch reg:17 physical reg:191(flat:191)

resultvalue:0 T0 : 04283178 `  MOV_P_I : st   t1d, DS:[t7 + 0x17da5c]'
commithead::src op[0] value is:0  arch reg:16 physical reg:16(flat:16)
commithead::src op[1] value is:4283188  arch reg:23 physical reg:198(flat:198)
commithead::src op[2] value is:1  arch reg:17 physical reg:191(flat:191)

resultvalue:4283194 T0 : 04283188 `  MOV_P_R : rdip   t7d, %ctrl153, '
commithead:: dest op[0] value is:4283194  arch reg:23 physical reg:192(flat:192)

resultvalue:0 T0 : 04283188 `  MOV_P_R : st   eax, DS:[t7 + 0x169ec6]'
commithead::src op[0] value is:0  arch reg:16 physical reg:16(flat:16)
commithead::src op[1] value is:4283194  arch reg:23 physical reg:192(flat:192)
commithead::src op[2] value is:0  arch reg:0 physical reg:200(flat:200)

resultvalue:0 T0 : 04283194 `  NOP   '

resultvalue:0 T0 : 04283197 `  NOP   '

resultvalue:16 T0 : 04283200 `  ADD_R_I : limm   t1, 0x10'
commithead:: dest op[0] value is:16  arch reg:17 physical reg:131(flat:131)

resultvalue:140737488351040 T0 : 04283200 `  ADD_R_I : add   rdi, rdi, t1'
commithead::src op[0] value is:140737488351024  arch reg:7 physical reg:69(flat:69)
commithead::src op[1] value is:16  arch reg:17 physical reg:131(flat:131)
[...]

resultvalue:140737488350120 T0 : 04357375 `  POP_R : addi   rsp, rsp, 0x8'
commithead::src op[0] value is:140737488350112  arch reg:4 physical reg:250(flat:250)
commithead:: dest op[0] value is:140737488350120  arch reg:4 physical reg:176(flat:176)

resultvalue:5767648 T0 : 04357375 `  POP_R : mov   rbx, rbx, t1'
commithead::src op[0] value is:5767648  arch reg:3 physical reg:137(flat:137)
commithead::src op[1] value is:5767648  arch reg:17 physical reg:120(flat:120)
commithead::src op[2] value is:5767648  arch reg:3 physical reg:137(flat:137)
commithead:: dest op[0] value is:5767648  arch reg:3 physical reg:159(flat:159)

resultvalue:5767648 T0 : 04357376 `  MOV_R_R : mov   rax, rax, rdx'
commithead::src op[0] value is:5767779  arch reg:0 physical reg:171(flat:171)
commithead::src op[1] value is:5767648  arch reg:2 physical reg:141(flat:141)
commithead::src op[2] value is:5767779  arch reg:0 physical reg:171(flat:171)
commithead:: dest op[0] value is:5767648  arch reg:0 physical reg:148(flat:148)

resultvalue:4243537 T0 : 04357379 `  RET_NEAR : ld   t1, SS:[rsp]'
commithead::src op[0] value is:0  arch reg:16 physical reg:16(flat:16)
commithead::src op[1] value is:140737488350120  arch reg:4 physical reg:176(flat:176)
commithead:: dest op[0] value is:4243537  arch reg:17 physical reg:173(flat:173)

resultvalue:140737488350128 T0 : 04357379 `  RET_NEAR : addi   rsp, rsp, 0x8'
commithead::src op[0] value is:140737488350120  arch reg:4 physical reg:176(flat:176)
commithead:: dest op[0] value is:140737488350128  arch reg:4 physical reg:38(flat:38)

resultvalue:0 T0 : 04357379 `  RET_NEAR : wripi   , t1, 0'
commithead::src op[0] value is:4243537  arch reg:17 physical reg:173(flat:173)

resultvalue:4243539 T0 : 04243537 `  JMP_I : rdip   t1, %ctrl153, '
commithead:: dest op[0] value is:4243539  arch reg:17 physical reg:105(flat:105)

resultvalue:18446744073709551566 T0 : 04243537 `  JMP_I : limm   t2, 0xffffffffffffffce'
commithead:: dest op[0] value is:18446744073709551566  arch reg:18 physical reg:236(flat:236)

resultvalue:0 T0 : 04243537 `  JMP_I : wrip   , t1, t2'
commithead::src op[0] value is:4243539  arch reg:17 physical reg:105(flat:105)
commithead::src op[1] value is:18446744073709551566  arch reg:18 physical reg:236(flat:236)

resultvalue:4294967295 T0 : 04243489 `  MOV_M_I : limm   t1d, 0xffffffffffffffff'
commithead:: dest op[0] value is:4294967295  arch reg:17 physical reg:174(flat:174)

resultvalue:0 T0 : 04243489 `  MOV_M_I : st   t1d, DS:[rbx + 0xa8]'
commithead::src op[0] value is:0  arch reg:16 physical reg:16(flat:16)
commithead::src op[1] value is:5767648  arch reg:3 physical reg:159(flat:159)
commithead::src op[2] value is:4294967295  arch reg:17 physical reg:174(flat:174)

resultvalue:5768288 T0 : 04243499 `  MOV_R_M : ld   rbx, DS:[rbx + 0x68]'
commithead::src op[0] value is:0  arch reg:16 physical reg:16(flat:16)
commithead::src op[1] value is:5767648  arch reg:3 physical reg:159(flat:159)
commithead:: dest op[0] value is:5768288  arch reg:3 physical reg:35(flat:35)

resultvalue:5768288 T0 : 04243503 `  TEST_R_R : and   t0, rbx, rbx'
commithead::src op[0] value is:5768288  arch reg:3 physical reg:35(flat:35)
commithead::src op[1] value is:5768288  arch reg:3 physical reg:35(flat:35)
commithead:: dest op[0] value is:0  arch reg:16 physical reg:16(flat:16)

resultvalue:4243508 T0 : 04243506 `  JNZ_I : rdip   t1, %ctrl153, '
commithead:: dest op[0] value is:4243508  arch reg:17 physical reg:189(flat:189)

resultvalue:18446744073709551572 T0 : 04243506 `  JNZ_I : limm   t2, 0xffffffffffffffd4'
commithead:: dest op[0] value is:18446744073709551572  arch reg:18 physical reg:118(flat:118)

resultvalue:0 T0 : 04243506 `  JNZ_I : wrip   , t1, t2'
commithead::src op[0] value is:4243508  arch reg:17 physical reg:189(flat:189)
commithead::src op[1] value is:18446744073709551572  arch reg:18 physical reg:118(flat:118)

resultvalue:4222427272 T0 : 04243464 `  MOV_R_M : ld   eax, DS:[rbx]'
commithead::src op[0] value is:0  arch reg:16 physical reg:16(flat:16)
commithead::src op[1] value is:5768288  arch reg:3 physical reg:35(flat:35)
commithead:: dest op[0] value is:4222427272  arch reg:0 physical reg:188(flat:188)

resultvalue:4243458 T0 : 04243466 `  TEST_R_I : limm   t1b, 0x2'
commithead::src op[0] value is:4243508  arch reg:17 physical reg:189(flat:189)
commithead:: dest op[0] value is:4243458  arch reg:17 physical reg:10(flat:10)

resultvalue:0 T0 : 04243466 `  TEST_R_I : and   t0b, al, t1b'
commithead::src op[0] value is:4222427272  arch reg:0 physical reg:188(flat:188)
commithead::src op[1] value is:4243458  arch reg:17 physical reg:10(flat:10)
commithead::src op[2] value is:0  arch reg:16 physical reg:16(flat:16)
commithead:: dest op[0] value is:0  arch reg:16 physical reg:16(flat:16)

resultvalue:4243470 T0 : 04243468 `  JNZ_I : rdip   t1, %ctrl153, '
commithead:: dest op[0] value is:4243470  arch reg:17 physical reg:205(flat:205)

resultvalue:19 T0 : 04243468 `  JNZ_I : limm   t2, 0x13'
commithead:: dest op[0] value is:19  arch reg:18 physical reg:100(flat:100)

resultvalue:0 T0 : 04243468 `  JNZ_I : wrip   , t1, t2'
commithead::src op[0] value is:4243470  arch reg:17 physical reg:205(flat:205)
commithead::src op[1] value is:19  arch reg:18 physical reg:100(flat:100)

resultvalue:4243464 T0 : 04243470 `  TEST_R_I : limm   t1b, 0x8'
commithead::src op[0] value is:4243470  arch reg:17 physical reg:205(flat:205)
commithead:: dest op[0] value is:4243464  arch reg:17 physical reg:202(flat:202)

resultvalue:8 T0 : 04243470 `  TEST_R_I : and   t0b, al, t1b'
commithead::src op[0] value is:4222427272  arch reg:0 physical reg:188(flat:188)
commithead::src op[1] value is:4243464  arch reg:17 physical reg:202(flat:202)
commithead::src op[2] value is:0  arch reg:16 physical reg:16(flat:16)
commithead:: dest op[0] value is:0  arch reg:16 physical reg:16(flat:16)

resultvalue:4243474 T0 : 04243472 `  JZ_I : rdip   t1, %ctrl153, '
commithead:: dest op[0] value is:4243474  arch reg:17 physical reg:93(flat:93)

resultvalue:5 T0 : 04243472 `  JZ_I : limm   t2, 0x5'
commithead:: dest op[0] value is:5  arch reg:18 physical reg:40(flat:40)

resultvalue:0 T0 : 04243472 `  JZ_I : wrip   , t1, t2'
commithead::src op[0] value is:4243474  arch reg:17 physical reg:93(flat:93)
commithead::src op[1] value is:5  arch reg:18 physical reg:40(flat:40)

resultvalue:4243472 T0 : 04243474 `  TEST_R_I : limm   t1b, 0x10'
commithead::src op[0] value is:4243474  arch reg:17 physical reg:93(flat:93)
commithead:: dest op[0] value is:4243472  arch reg:17 physical reg:235(flat:235)

resultvalue:0 T0 : 04243474 `  TEST_R_I : and   t0b, ah, t1b'
commithead::src op[0] value is:4222427272  arch reg:64 physical reg:188(flat:188)
commithead::src op[1] value is:4243472  arch reg:17 physical reg:235(flat:235)
commithead::src op[2] value is:0  arch reg:16 physical reg:16(flat:16)
commithead:: dest op[0] value is:0  arch reg:16 physical reg:16(flat:16)

resultvalue:4243479 T0 : 04243477 `  JZ_I : rdip   t1, %ctrl153, '
commithead:: dest op[0] value is:4243479  arch reg:17 physical reg:80(flat:80)

resultvalue:10 T0 : 04243477 `  JZ_I : limm   t2, 0xa'
commithead:: dest op[0] value is:10  arch reg:18 physical reg:203(flat:203)

resultvalue:0 T0 : 04243477 `  JZ_I : wrip   , t1, t2'
commithead::src op[0] value is:4243479  arch reg:17 physical reg:80(flat:80)
commithead::src op[1] value is:10  arch reg:18 physical reg:203(flat:203)

resultvalue:4294967295 T0 : 04243489 `  MOV_M_I : limm   t1d, 0xffffffffffffffff'
commithead:: dest op[0] value is:4294967295  arch reg:17 physical reg:50(flat:50)

resultvalue:0 T0 : 04243489 `  MOV_M_I : st   t1d, DS:[rbx + 0xa8]'
commithead::src op[0] value is:0  arch reg:16 physical reg:16(flat:16)
commithead::src op[1] value is:5768288  arch reg:3 physical reg:35(flat:35)
commithead::src op[2] value is:4294967295  arch reg:17 physical reg:50(flat:50)

resultvalue:0 T0 : 04243499 `  MOV_R_M : ld   rbx, DS:[rbx + 0x68]'
commithead::src op[0] value is:0  arch reg:16 physical reg:16(flat:16)
commithead::src op[1] value is:5768288  arch reg:3 physical reg:35(flat:35)
commithead:: dest op[0] value is:0  arch reg:3 physical reg:151(flat:151)

resultvalue:0 T0 : 04243503 `  TEST_R_R : and   t0, rbx, rbx'
commithead::src op[0] value is:0  arch reg:3 physical reg:151(flat:151)
commithead::src op[1] value is:0  arch reg:3 physical reg:151(flat:151)
commithead:: dest op[0] value is:0  arch reg:16 physical reg:16(flat:16)

resultvalue:4243508 T0 : 04243506 `  JNZ_I : rdip   t1, %ctrl153, '
commithead:: dest op[0] value is:4243508  arch reg:17 physical reg:209(flat:209)

resultvalue:18446744073709551572 T0 : 04243506 `  JNZ_I : limm   t2, 0xffffffffffffffd4'
commithead:: dest op[0] value is:18446744073709551572  arch reg:18 physical reg:195(flat:195)

resultvalue:0 T0 : 04243506 `  JNZ_I : wrip   , t1, t2'
commithead::src op[0] value is:4243508  arch reg:17 physical reg:209(flat:209)
commithead::src op[1] value is:18446744073709551572  arch reg:18 physical reg:195(flat:195)

resultvalue:8 T0 : 04243508 `  ADD_R_I : limm   t1, 0x8'
commithead:: dest op[0] value is:8  arch reg:17 physical reg:124(flat:124)

resultvalue:140737488350136 T0 : 04243508 `  ADD_R_I : add   rsp, rsp, t1'
commithead::src op[0] value is:140737488350128  arch reg:4 physical reg:38(flat:38)
commithead::src op[1] value is:8  arch reg:17 physical reg:124(flat:124)
commithead:: dest op[0] value is:140737488350136  arch reg:4 physical reg:241(flat:241)

resultvalue:0 T0 : 04243512 `  MOV_R_R : mov   eax, eax, ebp'
commithead::src op[0] value is:4222427272  arch reg:0 physical reg:188(flat:188)
commithead::src op[1] value is:0  arch reg:5 physical reg:243(flat:243)
commithead::src op[2] value is:4222427272  arch reg:0 physical reg:188(flat:188)
commithead:: dest op[0] value is:0  arch reg:0 physical reg:102(flat:102)

resultvalue:4678648 T0 : 04243514 `  POP_R : ldis   t1, SS:[rsp]'
commithead::src op[0] value is:0  arch reg:16 physical reg:16(flat:16)
commithead::src op[1] value is:140737488350136  arch reg:4 physical reg:241(flat:241)
commithead:: dest op[0] value is:4678648  arch reg:17 physical reg:125(flat:125)

resultvalue:140737488350144 T0 : 04243514 `  POP_R : addi   rsp, rsp, 0x8'
commithead::src op[0] value is:140737488350136  arch reg:4 physical reg:241(flat:241)
commithead:: dest op[0] value is:140737488350144  arch reg:4 physical reg:244(flat:244)

resultvalue:4678648 T0 : 04243514 `  POP_R : mov   rbx, rbx, t1'
commithead::src op[0] value is:0  arch reg:3 physical reg:151(flat:151)
commithead::src op[1] value is:4678648  arch reg:17 physical reg:125(flat:125)
commithead::src op[2] value is:0  arch reg:3 physical reg:151(flat:151)
commithead:: dest op[0] value is:4678648  arch reg:3 physical reg:157(flat:157)

resultvalue:0 T0 : 04243515 `  POP_R : ldis   t1, SS:[rsp]'
commithead::src op[0] value is:0  arch reg:16 physical reg:16(flat:16)
commithead::src op[1] value is:140737488350144  arch reg:4 physical reg:244(flat:244)
commithead:: dest op[0] value is:0  arch reg:17 physical reg:101(flat:101)

resultvalue:140737488350152 T0 : 04243515 `  POP_R : addi   rsp, rsp, 0x8'
commithead::src op[0] value is:140737488350144  arch reg:4 physical reg:244(flat:244)
commithead:: dest op[0] value is:140737488350152  arch reg:4 physical reg:122(flat:122)

resultvalue:0 T0 : 04243515 `  POP_R : mov   rbp, rbp, t1'
commithead::src op[0] value is:0  arch reg:5 physical reg:243(flat:243)
commithead::src op[1] value is:0  arch reg:17 physical reg:101(flat:101)
commithead::src op[2] value is:0  arch reg:5 physical reg:243(flat:243)
commithead:: dest op[0] value is:0  arch reg:5 physical reg:41(flat:41)

resultvalue:4237607 T0 : 04243516 `  RET_NEAR : ld   t1, SS:[rsp]'
commithead::src op[0] value is:0  arch reg:16 physical reg:16(flat:16)
commithead::src op[1] value is:140737488350152  arch reg:4 physical reg:122(flat:122)
commithead:: dest op[0] value is:4237607  arch reg:17 physical reg:67(flat:67)

resultvalue:140737488350160 T0 : 04243516 `  RET_NEAR : addi   rsp, rsp, 0x8'
commithead::src op[0] value is:140737488350152  arch reg:4 physical reg:122(flat:122)
commithead:: dest op[0] value is:140737488350160  arch reg:4 physical reg:91(flat:91)

resultvalue:0 T0 : 04243516 `  RET_NEAR : wripi   , t1, 0'
commithead::src op[0] value is:4237607  arch reg:17 physical reg:67(flat:67)

resultvalue:8 T0 : 04237607 `  ADD_R_I : limm   t1, 0x8'
commithead:: dest op[0] value is:8  arch reg:17 physical reg:223(flat:223)

resultvalue:4678656 T0 : 04237607 `  ADD_R_I : add   rbx, rbx, t1'
commithead::src op[0] value is:4678648  arch reg:3 physical reg:157(flat:157)
commithead::src op[1] value is:8  arch reg:17 physical reg:223(flat:223)
commithead:: dest op[0] value is:4678656  arch reg:3 physical reg:186(flat:186)

resultvalue:4678656 T0 : 04237611 `  CMP_R_I : limm   t1, 0x476400'
commithead:: dest op[0] value is:4678656  arch reg:17 physical reg:116(flat:116)

resultvalue:0 T0 : 04237611 `  CMP_R_I : sub   t0, rbx, t1'
commithead::src op[0] value is:4678656  arch reg:3 physical reg:186(flat:186)
commithead::src op[1] value is:4678656  arch reg:17 physical reg:116(flat:116)
commithead:: dest op[0] value is:0  arch reg:16 physical reg:16(flat:16)

resultvalue:4237620 T0 : 04237618 `  JB_I : rdip   t1, %ctrl153, '
commithead:: dest op[0] value is:4237620  arch reg:17 physical reg:62(flat:62)

resultvalue:18446744073709551601 T0 : 04237618 `  JB_I : limm   t2, 0xfffffffffffffff1'
commithead:: dest op[0] value is:18446744073709551601  arch reg:18 physical reg:83(flat:83)

resultvalue:0 T0 : 04237618 `  JB_I : wrip   , t1, t2'
commithead::src op[0] value is:4237620  arch reg:17 physical reg:62(flat:62)
commithead::src op[1] value is:18446744073709551601  arch reg:18 physical reg:83(flat:83)

resultvalue:0 T0 : 04237620 `  MOV_R_R : mov   edi, edi, ebp'
commithead::src op[0] value is:140737354125312  arch reg:7 physical reg:135(flat:135)
commithead::src op[1] value is:0  arch reg:5 physical reg:41(flat:41)
commithead::src op[2] value is:140737354125312  arch reg:7 physical reg:135(flat:135)
commithead:: dest op[0] value is:0  arch reg:7 physical reg:90(flat:90)

resultvalue:35189 T0 : 04237622 `  CALL_NEAR_I : limm   t1, 0x8975'
commithead:: dest op[0] value is:35189  arch reg:17 physical reg:55(flat:55)

resultvalue:4237627 T0 : 04237622 `  CALL_NEAR_I : rdip   t7, %ctrl153, '
commithead:: dest op[0] value is:4237627  arch reg:23 physical reg:2(flat:2)

resultvalue:0 T0 : 04237622 `  CALL_NEAR_I : stis   t7, SS:[rsp + 0xfffffffffffffff8]'
commithead::src op[0] value is:0  arch reg:16 physical reg:16(flat:16)
commithead::src op[1] value is:140737488350160  arch reg:4 physical reg:91(flat:91)
commithead::src op[2] value is:4237627  arch reg:23 physical reg:2(flat:2)

resultvalue:140737488350152 T0 : 04237622 `  CALL_NEAR_I : subi   rsp, rsp, 0x8'
commithead::src op[0] value is:140737488350160  arch reg:4 physical reg:91(flat:91)
commithead:: dest op[0] value is:140737488350152  arch reg:4 physical reg:152(flat:152)

resultvalue:0 T0 : 04237622 `  CALL_NEAR_I : wrip   , t7, t1'
commithead::src op[0] value is:4237627  arch reg:23 physical reg:2(flat:2)
commithead::src op[1] value is:35189  arch reg:17 physical reg:55(flat:55)

resultvalue:0 T0 : 04272816 `  PUSH_R : stis   r13, SS:[rsp + 0xfffffffffffffff8]'
commithead::src op[0] value is:0  arch reg:16 physical reg:16(flat:16)
commithead::src op[1] value is:140737488350152  arch reg:4 physical reg:152(flat:152)
commithead::src op[2] value is:1  arch reg:13 physical reg:88(flat:88)

resultvalue:140737488350144 T0 : 04272816 `  PUSH_R : subi   rsp, rsp, 0x8'
commithead::src op[0] value is:140737488350152  arch reg:4 physical reg:152(flat:152)
commithead:: dest op[0] value is:140737488350144  arch reg:4 physical reg:56(flat:56)

resultvalue:231 T0 : 04272818 `  MOV_R_I : limm   r13d, 0xe7'
commithead:: dest op[0] value is:231  arch reg:13 physical reg:63(flat:63)

resultvalue:0 T0 : 04272824 `  PUSH_R : stis   r12, SS:[rsp + 0xfffffffffffffff8]'
commithead::src op[0] value is:0  arch reg:16 physical reg:16(flat:16)
commithead::src op[1] value is:140737488350144  arch reg:4 physical reg:56(flat:56)
commithead::src op[2] value is:140737488350354  arch reg:12 physical reg:15(flat:15)

resultvalue:140737488350136 T0 : 04272824 `  PUSH_R : subi   rsp, rsp, 0x8'
commithead::src op[0] value is:140737488350144  arch reg:4 physical reg:56(flat:56)
commithead:: dest op[0] value is:140737488350136  arch reg:4 physical reg:3(flat:3)

resultvalue:60 T0 : 04272826 `  MOV_R_I : limm   r12d, 0x3c'
commithead:: dest op[0] value is:60  arch reg:12 physical reg:145(flat:145)

resultvalue:0 T0 : 04272832 `  PUSH_R : stis   rbp, SS:[rsp + 0xfffffffffffffff8]'
commithead::src op[0] value is:0  arch reg:16 physical reg:16(flat:16)
commithead::src op[1] value is:140737488350136  arch reg:4 physical reg:3(flat:3)
commithead::src op[2] value is:0  arch reg:5 physical reg:41(flat:41)

resultvalue:140737488350128 T0 : 04272832 `  PUSH_R : subi   rsp, rsp, 0x8'
commithead::src op[0] value is:140737488350136  arch reg:4 physical reg:3(flat:3)
commithead:: dest op[0] value is:140737488350128  arch reg:4 physical reg:4(flat:4)

resultvalue:0 T0 : 04272833 `  MOVSXD_R_R : sexti   rbp, rdi, 0x1f'
commithead::src op[0] value is:0  arch reg:7 physical reg:90(flat:90)
commithead:: dest op[0] value is:0  arch reg:5 physical reg:182(flat:182)

resultvalue:0 T0 : 04272836 `  PUSH_R : stis   rbx, SS:[rsp + 0xfffffffffffffff8]'
commithead::src op[0] value is:0  arch reg:16 physical reg:16(flat:16)
commithead::src op[1] value is:140737488350128  arch reg:4 physical reg:4(flat:4)
commithead::src op[2] value is:4678656  arch reg:3 physical reg:186(flat:186)

resultvalue:140737488350120 T0 : 04272836 `  PUSH_R : subi   rsp, rsp, 0x8'
commithead::src op[0] value is:140737488350128  arch reg:4 physical reg:4(flat:4)
commithead:: dest op[0] value is:140737488350120  arch reg:4 physical reg:170(flat:170)

resultvalue:8 T0 : 04272837 `  SUB_R_I : limm   t1, 0x8'
commithead:: dest op[0] value is:8  arch reg:17 physical reg:33(flat:33)

resultvalue:140737488350112 T0 : 04272837 `  SUB_R_I : sub   rsp, rsp, t1'
commithead::src op[0] value is:140737488350120  arch reg:4 physical reg:170(flat:170)
commithead::src op[1] value is:8  arch reg:17 physical reg:33(flat:33)
commithead:: dest op[0] value is:140737488350112  arch reg:4 physical reg:69(flat:69)

resultvalue:4272843 T0 : 04272841 `  JMP_I : rdip   t1, %ctrl153, '
commithead:: dest op[0] value is:4272843  arch reg:17 physical reg:238(flat:238)

resultvalue:25 T0 : 04272841 `  JMP_I : limm   t2, 0x19'
commithead:: dest op[0] value is:25  arch reg:18 physical reg:7(flat:7)

resultvalue:0 T0 : 04272841 `  JMP_I : wrip   , t1, t2'
commithead::src op[0] value is:4272843  arch reg:17 physical reg:238(flat:238)
commithead::src op[1] value is:25  arch reg:18 physical reg:7(flat:7)

resultvalue:0 T0 : 04272868 `  MOV_R_R : mov   rdi, rdi, rbp'
commithead::src op[0] value is:0  arch reg:7 physical reg:90(flat:90)
commithead::src op[1] value is:0  arch reg:5 physical reg:182(flat:182)
commithead::src op[2] value is:0  arch reg:7 physical reg:90(flat:90)
commithead:: dest op[0] value is:0  arch reg:7 physical reg:162(flat:162)

resultvalue:231 T0 : 04272871 `  MOV_R_R : mov   eax, eax, r13d'
commithead::src op[0] value is:0  arch reg:0 physical reg:102(flat:102)
commithead::src op[1] value is:231  arch reg:13 physical reg:63(flat:63)
commithead::src op[2] value is:0  arch reg:0 physical reg:102(flat:102)
commithead:: dest op[0] value is:231  arch reg:0 physical reg:200(flat:200)

resultvalue:0 T0 : 04272874 `  syscall    eax'
commithead::src op[0] value is:231  arch reg:0 physical reg:200(flat:200)

resultvalue:0 T0 : 04272874 `  syscall    eax'
commithead::src op[0] value is:231  arch reg:0 physical reg:200(flat:200)

Exiting @ tick 20499000 because exiting with last active thread context
