gem5 Simulator System.  http://gem5.org
gem5 is copyrighted software; use the --copyright option for details.

gem5 compiled Apr  2 2019 09:35:41
gem5 started Apr  2 2019 09:37:13
gem5 executing on mprc-R730, pid 31413
command line: build/X86/gem5.opt --debug-flags=O3CPUAll --debug-start=30000 --debug-file=traceo3v3.out configs/example/se.py -c tests/test-progs/hello/bin/x86/linux/hello --cpu-type=DerivO3CPU --caches

Global frequency set at 1000000000000 ticks per second
**** REAL SIMULATION ****
in rename:
rename tick,before toIQ:0,toRob:0,storesInProgress:0
from IEW:dispatched:0 from commit:getfromrename:0
,dispatchedToSQ:0rename tick,after: toIQInProgress:0,toRobInProgress0storesInProgress:0

in iew ,inst_from_rename size:0
in iew 
in iew sorted inst, get exe inst:0
in commit,getFromRename:0renamequeue:0in rename:
rename tick,before toIQ:0,toRob:0,storesInProgress:0
from IEW:dispatched:0 from commit:getfromrename:0
,dispatchedToSQ:0rename tick,after: toIQInProgress:0,toRobInProgress0storesInProgress:0

in iew ,inst_from_rename size:0
in iew 
in iew sorted inst, get exe inst:0
in commit,getFromRename:0renamequeue:0in rename:
rename tick,before toIQ:0,toRob:0,storesInProgress:0
from IEW:dispatched:0 from commit:getfromrename:0
,dispatchedToSQ:0rename tick,after: toIQInProgress:0,toRobInProgress0storesInProgress:0

in iew ,inst_from_rename size:0
in iew 
in iew sorted inst, get exe inst:0
in commit,getFromRename:0renamequeue:0in rename:
rename tick,before toIQ:0,toRob:0,storesInProgress:0
from IEW:dispatched:0 from commit:getfromrename:0
,dispatchedToSQ:0rename tick,after: toIQInProgress:0,toRobInProgress0storesInProgress:0

in iew ,inst_from_rename size:0
in iew 
in iew sorted inst, get exe inst:0
in commit,getFromRename:0renamequeue:0in rename:
rename tick,before toIQ:0,toRob:0,storesInProgress:0
from IEW:dispatched:0 from commit:getfromrename:0
,dispatchedToSQ:0rename tick,after: toIQInProgress:0,toRobInProgress0storesInProgress:0

in iew ,inst_from_rename size:0
in iew 
in iew sorted inst, get exe inst:0
in commit,getFromRename:0renamequeue:0in rename:
rename tick,before toIQ:0,toRob:0,storesInProgress:0
from IEW:dispatched:0 from commit:getfromrename:0
,dispatchedToSQ:0rename tick,after: toIQInProgress:0,toRobInProgress0storesInProgress:0

in iew ,inst_from_rename size:0
in iew 
in iew sorted inst, get exe inst:0
in commit,getFromRename:0renamequeue:0in rename:
rename tick,before toIQ:0,toRob:0,storesInProgress:0
from IEW:dispatched:0 from commit:getfromrename:0
,dispatchedToSQ:0rename tick,after: toIQInProgress:0,toRobInProgress0storesInProgress:0

in iew ,inst_from_rename size:0
in iew 
in iew sorted inst, get exe inst:0
in commit,getFromRename:0renamequeue:0in rename:
rename tick,before toIQ:0,toRob:0,storesInProgress:0
from IEW:dispatched:0 from commit:getfromrename:0
,dispatchedToSQ:0rename tick,after: toIQInProgress:0,toRobInProgress0storesInProgress:0

in iew ,inst_from_rename size:0
in iew 
in iew sorted inst, get exe inst:0
in commit,getFromRename:0renamequeue:0in rename:
rename tick,before toIQ:0,toRob:0,storesInProgress:0
from IEW:dispatched:0 from commit:getfromrename:0
,dispatchedToSQ:0rename tick,after: toIQInProgress:0,toRobInProgress0storesInProgress:0

in iew ,inst_from_rename size:0
in iew 
in iew sorted inst, get exe inst:0
in commit,getFromRename:0renamequeue:0in rename:
rename tick,before toIQ:0,toRob:0,storesInProgress:0
from IEW:dispatched:0 from commit:getfromrename:0
,dispatchedToSQ:0rename tick,after: toIQInProgress:0,toRobInProgress0storesInProgress:0

in iew ,inst_from_rename size:0
in iew 
in iew sorted inst, get exe inst:0
in commit,getFromRename:0renamequeue:0in rename:
rename tick,before toIQ:0,toRob:0,storesInProgress:0
from IEW:dispatched:0 from commit:getfromrename:0
,dispatchedToSQ:0rename tick,after: toIQInProgress:0,toRobInProgress0storesInProgress:0

in iew ,inst_from_rename size:0
in iew 
in iew sorted inst, get exe inst:0
in commit,getFromRename:0renamequeue:0in rename:
rename tick,before toIQ:0,toRob:0,storesInProgress:0
from IEW:dispatched:0 from commit:getfromrename:0
,dispatchedToSQ:0rename tick,after: toIQInProgress:0,toRobInProgress0storesInProgress:0

in iew ,inst_from_rename size:0
in iew 
in iew sorted inst, get exe inst:0
in commit,getFromRename:0renamequeue:0in rename:
rename tick,before toIQ:0,toRob:0,storesInProgress:0
from IEW:dispatched:0 from commit:getfromrename:0
,dispatchedToSQ:0rename tick,after: toIQInProgress:0,toRobInProgress0storesInProgress:0

in iew ,inst_from_rename size:0
in iew 
in iew sorted inst, get exe inst:0
in commit,getFromRename:0renamequeue:0in rename:
rename tick,before toIQ:0,toRob:0,storesInProgress:0
from IEW:dispatched:0 from commit:getfromrename:0
,dispatchedToSQ:0rename tick,after: toIQInProgress:0,toRobInProgress0storesInProgress:0

in iew ,inst_from_rename size:0
in iew 
in iew sorted inst, get exe inst:0
in commit,getFromRename:0renamequeue:0in rename:
to iew,commit size:0 iew size:1noNeedExe:0 T0 : 04194704 `  XOR_R_R : xor   rbp, rbp, rbp'
to commit,commit size:1 iew size:1noNeedExe:0 T0 : 04194704 `  XOR_R_R : xor   rbp, rbp, rbp'
to iew,commit size:1 iew size:2noNeedExe:0 T0 : 04194707 `  MOV_R_R : mov   r9, r9, rdx'
to commit,commit size:2 iew size:2noNeedExe:0 T0 : 04194707 `  MOV_R_R : mov   r9, r9, rdx'
to iew,commit size:2 iew size:3noNeedExe:0 T0 : 04194710 `  POP_R : ldis   t1, SS:[rsp]'
to commit,commit size:3 iew size:3noNeedExe:0 T0 : 04194710 `  POP_R : ldis   t1, SS:[rsp]'
to iew,commit size:3 iew size:4noNeedExe:0 T0 : 04194710 `  POP_R : addi   rsp, rsp, 0x8'
to commit,commit size:4 iew size:4noNeedExe:0 T0 : 04194710 `  POP_R : addi   rsp, rsp, 0x8'
to iew,commit size:4 iew size:5noNeedExe:0 T0 : 04194710 `  POP_R : mov   rsi, rsi, t1'
to commit,commit size:5 iew size:5noNeedExe:0 T0 : 04194710 `  POP_R : mov   rsi, rsi, t1'
to iew,commit size:5 iew size:6noNeedExe:0 T0 : 04194711 `  MOV_R_R : mov   rdx, rdx, rsp'
to commit,commit size:6 iew size:6noNeedExe:0 T0 : 04194711 `  MOV_R_R : mov   rdx, rdx, rsp'
to iew,commit size:6 iew size:7noNeedExe:0 T0 : 04194714 `  AND_R_I : limm   t1, 0xfffffffffffffff0'
to commit,commit size:7 iew size:7noNeedExe:0 T0 : 04194714 `  AND_R_I : limm   t1, 0xfffffffffffffff0'
to iew,commit size:7 iew size:8noNeedExe:0 T0 : 04194714 `  AND_R_I : and   rsp, rsp, t1'
to commit,commit size:8 iew size:8noNeedExe:0 T0 : 04194714 `  AND_R_I : and   rsp, rsp, t1'
rename tick,before toIQ:8,toRob:8,storesInProgress:0
from IEW:dispatched:0 from commit:getfromrename:0
,dispatchedToSQ:0rename tick,after: toIQInProgress:8,toRobInProgress8storesInProgress:0

in iew ,inst_from_rename size:0
in iew 
in iew sorted inst, get exe inst:0
in commit,getFromRename:0renamequeue:0in rename:
to iew,commit size:0 iew size:1noNeedExe:0 T0 : 04194718 `  PUSH_R : stis   rax, SS:[rsp + 0xfffffffffffffff8]'
to commit,commit size:1 iew size:1noNeedExe:0 T0 : 04194718 `  PUSH_R : stis   rax, SS:[rsp + 0xfffffffffffffff8]'
to iew,commit size:1 iew size:2noNeedExe:0 T0 : 04194718 `  PUSH_R : subi   rsp, rsp, 0x8'
to commit,commit size:2 iew size:2noNeedExe:0 T0 : 04194718 `  PUSH_R : subi   rsp, rsp, 0x8'
to iew,commit size:2 iew size:3noNeedExe:0 T0 : 04194719 `  PUSH_R : stis   rsp, SS:[rsp + 0xfffffffffffffff8]'
to commit,commit size:3 iew size:3noNeedExe:0 T0 : 04194719 `  PUSH_R : stis   rsp, SS:[rsp + 0xfffffffffffffff8]'
to iew,commit size:3 iew size:4noNeedExe:0 T0 : 04194719 `  PUSH_R : subi   rsp, rsp, 0x8'
to commit,commit size:4 iew size:4noNeedExe:0 T0 : 04194719 `  PUSH_R : subi   rsp, rsp, 0x8'
to iew,commit size:4 iew size:5noNeedExe:0 T0 : 04194720 `  MOV_R_I : limm   r8, 0x40a060'
to commit,commit size:5 iew size:5noNeedExe:0 T0 : 04194720 `  MOV_R_I : limm   r8, 0x40a060'
to iew,commit size:5 iew size:6noNeedExe:0 T0 : 04194727 `  MOV_R_I : limm   rcx, 0x409ff0'
to commit,commit size:6 iew size:6noNeedExe:0 T0 : 04194727 `  MOV_R_I : limm   rcx, 0x409ff0'
to iew,commit size:6 iew size:7noNeedExe:0 T0 : 04194734 `  MOV_R_I : limm   rdi, 0x400274'
to commit,commit size:7 iew size:7noNeedExe:0 T0 : 04194734 `  MOV_R_I : limm   rdi, 0x400274'
to iew,commit size:7 iew size:8noNeedExe:0 T0 : 04194741 `  CALL_NEAR_I : limm   t1, 0x9846'
to commit,commit size:8 iew size:8noNeedExe:0 T0 : 04194741 `  CALL_NEAR_I : limm   t1, 0x9846'
rename tick,before toIQ:16,toRob:16,storesInProgress:2
from IEW:dispatched:0 from commit:getfromrename:0
,dispatchedToSQ:0rename tick,after: toIQInProgress:16,toRobInProgress16storesInProgress:2

in iew ,inst_from_rename size:0
in iew 
in iew sorted inst, get exe inst:0
in commit,getFromRename:8renamequeue:8in rename:
to iew,commit size:0 iew size:1noNeedExe:0 T0 : 04194741 `  CALL_NEAR_I : rdip   t7, %ctrl153, '
to commit,commit size:1 iew size:1noNeedExe:0 T0 : 04194741 `  CALL_NEAR_I : rdip   t7, %ctrl153, '
to iew,commit size:1 iew size:2noNeedExe:0 T0 : 04194741 `  CALL_NEAR_I : stis   t7, SS:[rsp + 0xfffffffffffffff8]'
to commit,commit size:2 iew size:2noNeedExe:0 T0 : 04194741 `  CALL_NEAR_I : stis   t7, SS:[rsp + 0xfffffffffffffff8]'
to iew,commit size:2 iew size:3noNeedExe:0 T0 : 04194741 `  CALL_NEAR_I : subi   rsp, rsp, 0x8'
to commit,commit size:3 iew size:3noNeedExe:0 T0 : 04194741 `  CALL_NEAR_I : subi   rsp, rsp, 0x8'
to iew,commit size:3 iew size:4noNeedExe:0 T0 : 04194741 `  CALL_NEAR_I : wrip   , t7, t1'
to commit,commit size:4 iew size:4noNeedExe:0 T0 : 04194741 `  CALL_NEAR_I : wrip   , t7, t1'
to iew,commit size:4 iew size:5noNeedExe:0 T0 : 04194746 `  HLT : halt   '
to commit,commit size:5 iew size:5noNeedExe:0 T0 : 04194746 `  HLT : halt   '
rename tick,before toIQ:21,toRob:21,storesInProgress:3
from IEW:dispatched:0 from commit:getfromrename:8
,dispatchedToSQ:0rename tick,after: toIQInProgress:21,toRobInProgress13storesInProgress:3

in iew ,inst_from_rename size:8
in iew 
0 T0 : 04194704 `  XOR_R_R : xor   rbp, rbp, rbp'
0 T0 : 04194707 `  MOV_R_R : mov   r9, r9, rdx'
0 T0 : 04194710 `  POP_R : ldis   t1, SS:[rsp]'
0 T0 : 04194710 `  POP_R : addi   rsp, rsp, 0x8'
0 T0 : 04194710 `  POP_R : mov   rsi, rsi, t1'
0 T0 : 04194711 `  MOV_R_R : mov   rdx, rdx, rsp'
0 T0 : 04194714 `  AND_R_I : limm   t1, 0xfffffffffffffff0'
0 T0 : 04194714 `  AND_R_I : and   rsp, rsp, t1'
in iew sorted inst, get exe inst:8
in commit,getFromRename:8renamequeue:8in rename:
rename tick,before toIQ:21,toRob:13,storesInProgress:3
from IEW:dispatched:8 from commit:getfromrename:8
,dispatchedToSQ:0rename tick,after: toIQInProgress:13,toRobInProgress5storesInProgress:3

in iew ,inst_from_rename size:8
in iew 
0 T0 : 04194718 `  PUSH_R : stis   rax, SS:[rsp + 0xfffffffffffffff8]'
0 T0 : 04194718 `  PUSH_R : subi   rsp, rsp, 0x8'
0 T0 : 04194719 `  PUSH_R : stis   rsp, SS:[rsp + 0xfffffffffffffff8]'
0 T0 : 04194719 `  PUSH_R : subi   rsp, rsp, 0x8'
0 T0 : 04194720 `  MOV_R_I : limm   r8, 0x40a060'
0 T0 : 04194727 `  MOV_R_I : limm   rcx, 0x409ff0'
0 T0 : 04194734 `  MOV_R_I : limm   rdi, 0x400274'
0 T0 : 04194741 `  CALL_NEAR_I : limm   t1, 0x9846'
in iew sorted inst, get exe inst:8
in commit,getFromRename:5renamequeue:5in rename:
rename tick,before toIQ:13,toRob:5,storesInProgress:3
from IEW:dispatched:8 from commit:getfromrename:5
,dispatchedToSQ:2rename tick,after: toIQInProgress:5,toRobInProgress0storesInProgress:1

in iew ,inst_from_rename size:5
in iew 
0 T0 : 04194741 `  CALL_NEAR_I : rdip   t7, %ctrl153, '
0 T0 : 04194741 `  CALL_NEAR_I : stis   t7, SS:[rsp + 0xfffffffffffffff8]'
0 T0 : 04194741 `  CALL_NEAR_I : subi   rsp, rsp, 0x8'
0 T0 : 04194741 `  CALL_NEAR_I : wrip   , t7, t1'
0 T0 : 04194746 `  HLT : halt   '
in iew sorted inst, get exe inst:5
in commit,getFromRename:0renamequeue:0in rename:
rename tick,before toIQ:5,toRob:0,storesInProgress:1
from IEW:dispatched:5 from commit:getfromrename:0
,dispatchedToSQ:1rename tick,after: toIQInProgress:0,toRobInProgress0storesInProgress:0

in iew ,inst_from_rename size:0
in iew 
in iew sorted inst, get exe inst:0
commithead:: SN:1 val:0 T0 : 04194704 `  XOR_R_R : xor   rbp, rbp, rbp'
commithead::src op[0] value is:0  arch reg:5 physical reg:5(flat:5)
commithead::src op[1] value is:0  arch reg:5 physical reg:5(flat:5)
commithead:: dest op[0] value is:0  arch reg:5 physical reg:38(flat:38)

commithead:: SN:2 val:0 T0 : 04194707 `  MOV_R_R : mov   r9, r9, rdx'
commithead::src op[0] value is:0  arch reg:9 physical reg:9(flat:9)
commithead::src op[1] value is:0  arch reg:2 physical reg:2(flat:2)
commithead::src op[2] value is:0  arch reg:9 physical reg:9(flat:9)
commithead:: dest op[0] value is:0  arch reg:9 physical reg:39(flat:39)

in commit,getFromRename:0renamequeue:0in rename:
rename tick,before toIQ:0,toRob:0,storesInProgress:0
from IEW:dispatched:0 from commit:getfromrename:0
,dispatchedToSQ:0rename tick,after: toIQInProgress:0,toRobInProgress0storesInProgress:0

in iew ,inst_from_rename size:0
in iew 
in iew sorted inst, get exe inst:0
in commit,getFromRename:0renamequeue:0in rename:
rename tick,before toIQ:0,toRob:0,storesInProgress:0
from IEW:dispatched:0 from commit:getfromrename:0
,dispatchedToSQ:0rename tick,after: toIQInProgress:0,toRobInProgress0storesInProgress:0

in iew ,inst_from_rename size:0
in iew 
in iew sorted inst, get exe inst:0
in commit,getFromRename:0renamequeue:0in rename:
rename tick,before toIQ:0,toRob:0,storesInProgress:0
from IEW:dispatched:0 from commit:getfromrename:0
,dispatchedToSQ:0rename tick,after: toIQInProgress:0,toRobInProgress0storesInProgress:0

in iew ,inst_from_rename size:0
in iew 
in iew sorted inst, get exe inst:0
in commit,getFromRename:0renamequeue:0in rename:
rename tick,before toIQ:0,toRob:0,storesInProgress:0
from IEW:dispatched:0 from commit:getfromrename:0
,dispatchedToSQ:0rename tick,after: toIQInProgress:0,toRobInProgress0storesInProgress:0

in iew ,inst_from_rename size:0
in iew 
in iew sorted inst, get exe inst:0
in commit,getFromRename:0renamequeue:0in rename:
rename tick,before toIQ:0,toRob:0,storesInProgress:0
from IEW:dispatched:0 from commit:getfromrename:0
,dispatchedToSQ:0rename tick,after: toIQInProgress:0,toRobInProgress0storesInProgress:0

in iew ,inst_from_rename size:0
in iew 
in iew sorted inst, get exe inst:0
in commit,getFromRename:0renamequeue:0in rename:
rename tick,before toIQ:0,toRob:0,storesInProgress:0
from IEW:dispatched:0 from commit:getfromrename:0
,dispatchedToSQ:0rename tick,after: toIQInProgress:0,toRobInProgress0storesInProgress:0

in iew ,inst_from_rename size:0
in iew 
in iew sorted inst, get exe inst:0
in commit,getFromRename:0renamequeue:0in rename:
rename tick,before toIQ:0,toRob:0,storesInProgress:0
from IEW:dispatched:0 from commit:getfromrename:0
,dispatchedToSQ:0rename tick,after: toIQInProgress:0,toRobInProgress0storesInProgress:0

in iew ,inst_from_rename size:0
in iew 
in iew sorted inst, get exe inst:0
in commit,getFromRename:0renamequeue:0in rename:
rename tick,before toIQ:0,toRob:0,storesInProgress:0
from IEW:dispatched:0 from commit:getfromrename:0
,dispatchedToSQ:0rename tick,after: toIQInProgress:0,toRobInProgress0storesInProgress:0

in iew ,inst_from_rename size:0
in iew 
in iew sorted inst, get exe inst:0
in commit,getFromRename:0renamequeue:0in rename:
rename tick,before toIQ:0,toRob:0,storesInProgress:0
from IEW:dispatched:0 from commit:getfromrename:0
,dispatchedToSQ:0rename tick,after: toIQInProgress:0,toRobInProgress0storesInProgress:0

in iew ,inst_from_rename size:0
in iew 
in iew sorted inst, get exe inst:0
in commit,getFromRename:0renamequeue:0in rename:
rename tick,before toIQ:0,toRob:0,storesInProgress:0
from IEW:dispatched:0 from commit:getfromrename:0
,dispatchedToSQ:0rename tick,after: toIQInProgress:0,toRobInProgress0storesInProgress:0

in iew ,inst_from_rename size:0
in iew 
in iew sorted inst, get exe inst:0
in commit,getFromRename:0renamequeue:0in rename:
rename tick,before toIQ:0,toRob:0,storesInProgress:0
from IEW:dispatched:0 from commit:getfromrename:0
,dispatchedToSQ:0rename tick,after: toIQInProgress:0,toRobInProgress0storesInProgress:0

in iew ,inst_from_rename size:0
in iew 
in iew sorted inst, get exe inst:0
in commit,getFromRename:0renamequeue:0in rename:
rename tick,before toIQ:0,toRob:0,storesInProgress:0
from IEW:dispatched:0 from commit:getfromrename:0
,dispatchedToSQ:0rename tick,after: toIQInProgress:0,toRobInProgress0storesInProgress:0

in iew ,inst_from_rename size:0
in iew 
in iew sorted inst, get exe inst:0
in commit,getFromRename:0renamequeue:0in rename:
rename tick,before toIQ:0,toRob:0,storesInProgress:0
from IEW:dispatched:0 from commit:getfromrename:0
,dispatchedToSQ:0rename tick,after: toIQInProgress:0,toRobInProgress0storesInProgress:0

in iew ,inst_from_rename size:0
in iew 
in iew sorted inst, get exe inst:0
in commit,getFromRename:0renamequeue:0in rename:
rename tick,before toIQ:0,toRob:0,storesInProgress:0
from IEW:dispatched:0 from commit:getfromrename:0
,dispatchedToSQ:0rename tick,after: toIQInProgress:0,toRobInProgress0storesInProgress:0

in iew ,inst_from_rename size:0
in iew 
in iew sorted inst, get exe inst:0
in commit,getFromRename:0renamequeue:0in rename:
rename tick,before toIQ:0,toRob:0,storesInProgress:0
from IEW:dispatched:0 from commit:getfromrename:0
,dispatchedToSQ:0rename tick,after: toIQInProgress:0,toRobInProgress0storesInProgress:0

in iew ,inst_from_rename size:0
in iew 
in iew sorted inst, get exe inst:0
in commit,getFromRename:0renamequeue:0in rename:
rename tick,before toIQ:0,toRob:0,storesInProgress:0
from IEW:dispatched:0 from commit:getfromrename:0
,dispatchedToSQ:0rename tick,after: toIQInProgress:0,toRobInProgress0storesInProgress:0

in iew ,inst_from_rename size:0
in iew 
in iew sorted inst, get exe inst:0
commithead:: SN:3 val:1 T0 : 04194710 `  POP_R : ldis   t1, SS:[rsp]'
commithead::src op[0] value is:0  arch reg:16 physical reg:16(flat:16)
commithead::src op[1] value is:140737488350768  arch reg:4 physical reg:4(flat:4)
commithead:: dest op[0] value is:1  arch reg:17 physical reg:40(flat:40)

commithead:: SN:4 val:140737488350776 T0 : 04194710 `  POP_R : addi   rsp, rsp, 0x8'
commithead::src op[0] value is:140737488350768  arch reg:4 physical reg:4(flat:4)
commithead:: dest op[0] value is:140737488350776  arch reg:4 physical reg:41(flat:41)

in commit,getFromRename:0renamequeue:0in rename:
rename tick,before toIQ:0,toRob:0,storesInProgress:0
from IEW:dispatched:0 from commit:getfromrename:0
,dispatchedToSQ:0rename tick,after: toIQInProgress:0,toRobInProgress0storesInProgress:0

in iew ,inst_from_rename size:0
in iew 
in iew sorted inst, get exe inst:0
commithead:: SN:5 val:1 T0 : 04194710 `  POP_R : mov   rsi, rsi, t1'
commithead::src op[0] value is:0  arch reg:6 physical reg:6(flat:6)
commithead::src op[1] value is:1  arch reg:17 physical reg:40(flat:40)
commithead::src op[2] value is:0  arch reg:6 physical reg:6(flat:6)
commithead:: dest op[0] value is:1  arch reg:6 physical reg:42(flat:42)

commithead:: SN:6 val:140737488350776 T0 : 04194711 `  MOV_R_R : mov   rdx, rdx, rsp'
commithead::src op[0] value is:0  arch reg:2 physical reg:2(flat:2)
commithead::src op[1] value is:140737488350776  arch reg:4 physical reg:41(flat:41)
commithead::src op[2] value is:0  arch reg:2 physical reg:2(flat:2)
commithead:: dest op[0] value is:140737488350776  arch reg:2 physical reg:43(flat:43)

commithead:: SN:7 val:18446744073709551600 T0 : 04194714 `  AND_R_I : limm   t1, 0xfffffffffffffff0'
commithead:: dest op[0] value is:18446744073709551600  arch reg:17 physical reg:44(flat:44)

commithead:: SN:8 val:140737488350768 T0 : 04194714 `  AND_R_I : and   rsp, rsp, t1'
commithead::src op[0] value is:140737488350776  arch reg:4 physical reg:41(flat:41)
commithead::src op[1] value is:18446744073709551600  arch reg:17 physical reg:44(flat:44)
commithead:: dest op[0] value is:140737488350768  arch reg:4 physical reg:45(flat:45)

commithead:: SN:9 val:0 T0 : 04194718 `  PUSH_R : stis   rax, SS:[rsp + 0xfffffffffffffff8]'
commithead::src op[0] value is:0  arch reg:16 physical reg:16(flat:16)
commithead::src op[1] value is:140737488350768  arch reg:4 physical reg:45(flat:45)
commithead::src op[2] value is:0  arch reg:0 physical reg:0(flat:0)

commithead:: SN:10 val:140737488350760 T0 : 04194718 `  PUSH_R : subi   rsp, rsp, 0x8'
commithead::src op[0] value is:140737488350768  arch reg:4 physical reg:45(flat:45)
commithead:: dest op[0] value is:140737488350760  arch reg:4 physical reg:46(flat:46)

commithead:: SN:11 val:0 T0 : 04194719 `  PUSH_R : stis   rsp, SS:[rsp + 0xfffffffffffffff8]'
commithead::src op[0] value is:0  arch reg:16 physical reg:16(flat:16)
commithead::src op[1] value is:140737488350760  arch reg:4 physical reg:46(flat:46)
commithead::src op[2] value is:140737488350760  arch reg:4 physical reg:46(flat:46)

commithead:: SN:12 val:140737488350752 T0 : 04194719 `  PUSH_R : subi   rsp, rsp, 0x8'
commithead::src op[0] value is:140737488350760  arch reg:4 physical reg:46(flat:46)
commithead:: dest op[0] value is:140737488350752  arch reg:4 physical reg:47(flat:47)

in commit,getFromRename:0renamequeue:0in rename:
rename tick,before toIQ:0,toRob:0,storesInProgress:0
from IEW:dispatched:0 from commit:getfromrename:0
,dispatchedToSQ:0rename tick,after: toIQInProgress:0,toRobInProgress0storesInProgress:0

in iew ,inst_from_rename size:0
in iew 
in iew sorted inst, get exe inst:0
commithead:: SN:13 val:4235360 T0 : 04194720 `  MOV_R_I : limm   r8, 0x40a060'
commithead:: dest op[0] value is:4235360  arch reg:8 physical reg:48(flat:48)

commithead:: SN:14 val:4235248 T0 : 04194727 `  MOV_R_I : limm   rcx, 0x409ff0'
commithead:: dest op[0] value is:4235248  arch reg:1 physical reg:49(flat:49)

commithead:: SN:15 val:4194932 T0 : 04194734 `  MOV_R_I : limm   rdi, 0x400274'
commithead:: dest op[0] value is:4194932  arch reg:7 physical reg:50(flat:50)

commithead:: SN:16 val:38982 T0 : 04194741 `  CALL_NEAR_I : limm   t1, 0x9846'
commithead:: dest op[0] value is:38982  arch reg:17 physical reg:51(flat:51)

commithead:: SN:17 val:4194746 T0 : 04194741 `  CALL_NEAR_I : rdip   t7, %ctrl153, '
commithead:: dest op[0] value is:4194746  arch reg:23 physical reg:52(flat:52)

commithead:: SN:18 val:0 T0 : 04194741 `  CALL_NEAR_I : stis   t7, SS:[rsp + 0xfffffffffffffff8]'
commithead::src op[0] value is:0  arch reg:16 physical reg:16(flat:16)
commithead::src op[1] value is:140737488350752  arch reg:4 physical reg:47(flat:47)
commithead::src op[2] value is:4194746  arch reg:23 physical reg:52(flat:52)

commithead:: SN:19 val:140737488350744 T0 : 04194741 `  CALL_NEAR_I : subi   rsp, rsp, 0x8'
commithead::src op[0] value is:140737488350752  arch reg:4 physical reg:47(flat:47)
commithead:: dest op[0] value is:140737488350744  arch reg:4 physical reg:53(flat:53)

commithead:: SN:20 val:0 T0 : 04194741 `  CALL_NEAR_I : wrip   , t7, t1'
commithead::src op[0] value is:4194746  arch reg:23 physical reg:52(flat:52)
commithead::src op[1] value is:38982  arch reg:17 physical reg:51(flat:51)

in commit,getFromRename:0renamequeue:0in rename:
rename tick,before toIQ:0,toRob:0,storesInProgress:0
from IEW:dispatched:0 from commit:getfromrename:0
,dispatchedToSQ:0rename tick,after: toIQInProgress:0,toRobInProgress0storesInProgress:0

in iew ,inst_from_rename size:0
in iew 
in iew sorted inst, get exe inst:0
in commit,getFromRename:0renamequeue:0in rename:
rename tick,before toIQ:0,toRob:0,storesInProgress:0
from IEW:dispatched:0 from commit:getfromrename:0
,dispatchedToSQ:0rename tick,after: toIQInProgress:0,toRobInProgress0storesInProgress:0

in iew ,inst_from_rename size:0
in iew 
in iew sorted inst, get exe inst:0
in commit,getFromRename:0renamequeue:0in rename:
rename tick,before toIQ:0,toRob:0,storesInProgress:0
from IEW:dispatched:0 from commit:getfromrename:0
,dispatchedToSQ:0rename tick,after: toIQInProgress:0,toRobInProgress0storesInProgress:0

in iew ,inst_from_rename size:0
in iew 
in iew sorted inst, get exe inst:0
in commit,getFromRename:0renamequeue:0in rename:
rename tick,before toIQ:0,toRob:0,storesInProgress:0
from IEW:dispatched:0 from commit:getfromrename:0
,dispatchedToSQ:0rename tick,after: toIQInProgress:0,toRobInProgress0storesInProgress:0

in iew ,inst_from_rename size:0
in iew 
in iew sorted inst, get exe inst:0
in commit,getFromRename:0renamequeue:0in rename:
rename tick,before toIQ:0,toRob:0,storesInProgress:0
from IEW:dispatched:0 from commit:getfromrename:0
,dispatchedToSQ:0rename tick,after: toIQInProgress:0,toRobInProgress0storesInProgress:0

in iew ,inst_from_rename size:0
in iew 
in iew sorted inst, get exe inst:0
in commit,getFromRename:0renamequeue:0in rename:
rename tick,before toIQ:0,toRob:0,storesInProgress:0
from IEW:dispatched:0 from commit:getfromrename:0
,dispatchedToSQ:0rename tick,after: toIQInProgress:0,toRobInProgress0storesInProgress:0

in iew ,inst_from_rename size:0
in iew 
in iew sorted inst, get exe inst:0
in commit,getFromRename:0renamequeue:0in rename:
rename tick,before toIQ:0,toRob:0,storesInProgress:0
from IEW:dispatched:0 from commit:getfromrename:0
,dispatchedToSQ:0rename tick,after: toIQInProgress:0,toRobInProgress0storesInProgress:0

in iew ,inst_from_rename size:0
in iew 
in iew sorted inst, get exe inst:0
in commit,getFromRename:0renamequeue:0in rename:
rename tick,before toIQ:0,toRob:0,storesInProgress:0
from IEW:dispatched:0 from commit:getfromrename:0
,dispatchedToSQ:0rename tick,after: toIQInProgress:0,toRobInProgress0storesInProgress:0

in iew ,inst_from_rename size:0
in iew 
in iew sorted inst, get exe inst:0
in commit,getFromRename:0renamequeue:0in rename:
rename tick,before toIQ:0,toRob:0,storesInProgress:0
from IEW:dispatched:0 from commit:getfromrename:0
,dispatchedToSQ:0rename tick,after: toIQInProgress:0,toRobInProgress0storesInProgress:0

in iew ,inst_from_rename size:0
in iew 
in iew sorted inst, get exe inst:0
in commit,getFromRename:0renamequeue:0in rename:
rename tick,before toIQ:0,toRob:0,storesInProgress:0
from IEW:dispatched:0 from commit:getfromrename:0
,dispatchedToSQ:0rename tick,after: toIQInProgress:0,toRobInProgress0storesInProgress:0

in iew ,inst_from_rename size:0
in iew 
in iew sorted inst, get exe inst:0
in commit,getFromRename:0renamequeue:0in rename:
rename tick,before toIQ:0,toRob:0,storesInProgress:0
from IEW:dispatched:0 from commit:getfromrename:0
,dispatchedToSQ:0rename tick,after: toIQInProgress:0,toRobInProgress0storesInProgress:0

in iew ,inst_from_rename size:0
in iew 
in iew sorted inst, get exe inst:0
in commit,getFromRename:0renamequeue:0in rename:
rename tick,before toIQ:0,toRob:0,storesInProgress:0
from IEW:dispatched:0 from commit:getfromrename:0
,dispatchedToSQ:0rename tick,after: toIQInProgress:0,toRobInProgress0storesInProgress:0

in iew ,inst_from_rename size:0
in iew 
in iew sorted inst, get exe inst:0
in commit,getFromRename:0renamequeue:0in rename:
rename tick,before toIQ:0,toRob:0,storesInProgress:0
from IEW:dispatched:0 from commit:getfromrename:0
,dispatchedToSQ:0rename tick,after: toIQInProgress:0,toRobInProgress0storesInProgress:0

in iew ,inst_from_rename size:0
in iew 
in iew sorted inst, get exe inst:0
in commit,getFromRename:0renamequeue:0in rename:
rename tick,before toIQ:0,toRob:0,storesInProgress:0
from IEW:dispatched:0 from commit:getfromrename:0
,dispatchedToSQ:0rename tick,after: toIQInProgress:0,toRobInProgress0storesInProgress:0

in iew ,inst_from_rename size:0
in iew 
in iew sorted inst, get exe inst:0
in commit,getFromRename:0renamequeue:0in rename:
rename tick,before toIQ:0,toRob:0,storesInProgress:0
from IEW:dispatched:0 from commit:getfromrename:0
,dispatchedToSQ:0rename tick,after: toIQInProgress:0,toRobInProgress0storesInProgress:0

in iew ,inst_from_rename size:0
in iew 
in iew sorted inst, get exe inst:0
in commit,getFromRename:0renamequeue:0in rename:
to commit,commit size:1 iew size:0noNeedExe:1 T0 : 04233728 `  PUSH_R : stis   r15, SS:[rsp + 0xfffffffffffffff8]'
to commit,commit size:2 iew size:0noNeedExe:1 T0 : 04233728 `  PUSH_R : subi   rsp, rsp, 0x8'
to commit,commit size:3 iew size:0noNeedExe:1 T0 : 04233730 `  MOVSXD_R_R : sexti   rax, rsi, 0x1f'
to commit,commit size:4 iew size:0noNeedExe:1 T0 : 04233733 `  MOV_R_R : mov   r15, r15, r9'
to iew,commit size:4 iew size:1noNeedExe:0 T0 : 04233736 `  PUSH_R : stis   r14, SS:[rsp + 0xfffffffffffffff8]'
to commit,commit size:5 iew size:1noNeedExe:0 T0 : 04233736 `  PUSH_R : stis   r14, SS:[rsp + 0xfffffffffffffff8]'
to iew,commit size:5 iew size:2noNeedExe:0 T0 : 04233736 `  PUSH_R : subi   rsp, rsp, 0x8'
to commit,commit size:6 iew size:2noNeedExe:0 T0 : 04233736 `  PUSH_R : subi   rsp, rsp, 0x8'
to iew,commit size:6 iew size:3noNeedExe:0 T0 : 04233738 `  MOV_R_R : mov   r14, r14, rdx'
to commit,commit size:7 iew size:3noNeedExe:0 T0 : 04233738 `  MOV_R_R : mov   r14, r14, rdx'
to iew,commit size:7 iew size:4noNeedExe:0 T0 : 04233741 `  PUSH_R : stis   r13, SS:[rsp + 0xfffffffffffffff8]'
to commit,commit size:8 iew size:4noNeedExe:0 T0 : 04233741 `  PUSH_R : stis   r13, SS:[rsp + 0xfffffffffffffff8]'
rename tick,before toIQ:4,toRob:8,storesInProgress:2
from IEW:dispatched:0 from commit:getfromrename:0
,dispatchedToSQ:0rename tick,after: toIQInProgress:4,toRobInProgress8storesInProgress:2

in iew ,inst_from_rename size:0
in iew 
in iew sorted inst, get exe inst:0
in commit,getFromRename:0renamequeue:0in rename:
to commit,commit size:1 iew size:0noNeedExe:1 T0 : 04233741 `  PUSH_R : subi   rsp, rsp, 0x8'
to commit,commit size:2 iew size:0noNeedExe:1 T0 : 04233743 `  MOV_R_R : mov   r13d, r13d, esi'
to commit,commit size:3 iew size:0noNeedExe:1 T0 : 04233746 `  PUSH_R : stis   r12, SS:[rsp + 0xfffffffffffffff8]'
to commit,commit size:4 iew size:0noNeedExe:1 T0 : 04233746 `  PUSH_R : subi   rsp, rsp, 0x8'
to iew,commit size:4 iew size:1noNeedExe:0 T0 : 04233748 `  PUSH_R : stis   rbp, SS:[rsp + 0xfffffffffffffff8]'
to commit,commit size:5 iew size:1noNeedExe:0 T0 : 04233748 `  PUSH_R : stis   rbp, SS:[rsp + 0xfffffffffffffff8]'
to iew,commit size:5 iew size:2noNeedExe:0 T0 : 04233748 `  PUSH_R : subi   rsp, rsp, 0x8'
to commit,commit size:6 iew size:2noNeedExe:0 T0 : 04233748 `  PUSH_R : subi   rsp, rsp, 0x8'
to iew,commit size:6 iew size:3noNeedExe:0 T0 : 04233749 `  PUSH_R : stis   rbx, SS:[rsp + 0xfffffffffffffff8]'
to commit,commit size:7 iew size:3noNeedExe:0 T0 : 04233749 `  PUSH_R : stis   rbx, SS:[rsp + 0xfffffffffffffff8]'
to iew,commit size:7 iew size:4noNeedExe:0 T0 : 04233749 `  PUSH_R : subi   rsp, rsp, 0x8'
to commit,commit size:8 iew size:4noNeedExe:0 T0 : 04233749 `  PUSH_R : subi   rsp, rsp, 0x8'
rename tick,before toIQ:8,toRob:16,storesInProgress:4
from IEW:dispatched:0 from commit:getfromrename:0
,dispatchedToSQ:0rename tick,after: toIQInProgress:8,toRobInProgress16storesInProgress:4

in iew ,inst_from_rename size:0
in iew 
in iew sorted inst, get exe inst:0
in commit,getFromRename:8renamequeue:8in rename:
i am in wake up renamer instT0 : 04233728 `  PUSH_R : stis   r15, SS:[rsp + 0xfffffffffffffff8]'
0 T0 : 04233728 `  PUSH_R : stis   r15, SS:[rsp + 0xfffffffffffffff8]'
to commit,commit size:1 iew size:1noNeedExe:1 T0 : 04233750 `  SUB_R_I : limm   t1, 0x1f8'
to commit,commit size:2 iew size:1noNeedExe:1 T0 : 04233750 `  SUB_R_I : sub   rsp, rsp, t1'
to commit,commit size:3 iew size:1noNeedExe:1 T0 : 04233757 `  MOV_M_R : st   rdi, DS:[rsp + 0x18]'
to commit,commit size:4 iew size:1noNeedExe:1 T0 : 04233762 `  LEA_R_M : lea   rdi, DS:[8*rax + rdx + 0x8]'
to iew,commit size:4 iew size:2noNeedExe:0 T0 : 04233767 `  MOV_R_I : limm   eax, 0'
to commit,commit size:5 iew size:2noNeedExe:0 T0 : 04233767 `  MOV_R_I : limm   eax, 0'
to iew,commit size:5 iew size:3noNeedExe:0 T0 : 04233772 `  XOR_R_R : xor   edx, edx, edx'
to commit,commit size:6 iew size:3noNeedExe:0 T0 : 04233772 `  XOR_R_R : xor   edx, edx, edx'
to iew,commit size:6 iew size:4noNeedExe:0 T0 : 04233774 `  TEST_R_R : and   t0, rax, rax'
to commit,commit size:7 iew size:4noNeedExe:0 T0 : 04233774 `  TEST_R_R : and   t0, rax, rax'
to iew,commit size:7 iew size:5noNeedExe:0 T0 : 04233777 `  MOV_M_R : st   rcx, DS:[rsp + 0x10]'
to commit,commit size:8 iew size:5noNeedExe:0 T0 : 04233777 `  MOV_M_R : st   rcx, DS:[rsp + 0x10]'
rename tick,before toIQ:13,toRob:24,storesInProgress:6
from IEW:dispatched:0 from commit:getfromrename:8
,dispatchedToSQ:0rename tick,after: toIQInProgress:13,toRobInProgress16storesInProgress:6

in iew ,inst_from_rename size:4
in iew 
0 T0 : 04233736 `  PUSH_R : stis   r14, SS:[rsp + 0xfffffffffffffff8]'
0 T0 : 04233736 `  PUSH_R : subi   rsp, rsp, 0x8'
0 T0 : 04233738 `  MOV_R_R : mov   r14, r14, rdx'
0 T0 : 04233741 `  PUSH_R : stis   r13, SS:[rsp + 0xfffffffffffffff8]'
in iew sorted inst, get exe inst:4
in commit,getFromRename:8renamequeue:8in rename:
to commit,commit size:1 iew size:0noNeedExe:1 T0 : 04233782 `  MOV_M_R : st   r8, DS:[rsp + 0x8]'
to commit,commit size:2 iew size:0noNeedExe:1 T0 : 04233787 `  JZ_I : rdip   t1, %ctrl153, '
to commit,commit size:3 iew size:0noNeedExe:1 T0 : 04233787 `  JZ_I : limm   t2, 0x12'
to commit,commit size:4 iew size:0noNeedExe:1 T0 : 04233787 `  JZ_I : wrip   , t1, t2'
rename tick,before toIQ:13,toRob:20,storesInProgress:6
from IEW:dispatched:4 from commit:getfromrename:8
,dispatchedToSQ:2rename tick,after: toIQInProgress:9,toRobInProgress12storesInProgress:4

in iew ,inst_from_rename size:4
in iew 
0 T0 : 04233748 `  PUSH_R : stis   rbp, SS:[rsp + 0xfffffffffffffff8]'
0 T0 : 04233748 `  PUSH_R : subi   rsp, rsp, 0x8'
0 T0 : 04233749 `  PUSH_R : stis   rbx, SS:[rsp + 0xfffffffffffffff8]'
0 T0 : 04233749 `  PUSH_R : subi   rsp, rsp, 0x8'
in iew sorted inst, get exe inst:4
in commit,getFromRename:8renamequeue:8in rename:
rename tick,before toIQ:9,toRob:12,storesInProgress:4
from IEW:dispatched:4 from commit:getfromrename:8
,dispatchedToSQ:2rename tick,after: toIQInProgress:5,toRobInProgress4storesInProgress:2

in iew ,inst_from_rename size:5
in iew 
0 T0 : 04233728 `  PUSH_R : stis   r15, SS:[rsp + 0xfffffffffffffff8]'
0 T0 : 04233767 `  MOV_R_I : limm   eax, 0'
0 T0 : 04233772 `  XOR_R_R : xor   edx, edx, edx'
0 T0 : 04233774 `  TEST_R_R : and   t0, rax, rax'
0 T0 : 04233777 `  MOV_M_R : st   rcx, DS:[rsp + 0x10]'
in iew sorted inst, get exe inst:5
in commit,getFromRename:4renamequeue:4in rename:
rename tick,before toIQ:5,toRob:4,storesInProgress:2
from IEW:dispatched:5 from commit:getfromrename:4
,dispatchedToSQ:2rename tick,after: toIQInProgress:0,toRobInProgress0storesInProgress:0

in iew ,inst_from_rename size:0
in iew 
in iew sorted inst, get exe inst:0
in commit,getFromRename:0renamequeue:0in rename:
rename tick,before toIQ:0,toRob:0,storesInProgress:0
from IEW:dispatched:0 from commit:getfromrename:0
,dispatchedToSQ:0rename tick,after: toIQInProgress:0,toRobInProgress0storesInProgress:0

in iew ,inst_from_rename size:0
in iew 
in iew sorted inst, get exe inst:0
in commit,getFromRename:0renamequeue:0in rename:
rename tick,before toIQ:0,toRob:0,storesInProgress:0
from IEW:dispatched:0 from commit:getfromrename:0
,dispatchedToSQ:0rename tick,after: toIQInProgress:0,toRobInProgress0storesInProgress:0

in iew ,inst_from_rename size:0
in iew 
in iew sorted inst, get exe inst:0
in commit,getFromRename:0renamequeue:0in rename:
rename tick,before toIQ:0,toRob:0,storesInProgress:0
from IEW:dispatched:0 from commit:getfromrename:0
,dispatchedToSQ:0rename tick,after: toIQInProgress:0,toRobInProgress0storesInProgress:0

in iew ,inst_from_rename size:0
in iew 
in iew sorted inst, get exe inst:0
commithead:: SN:22 val:0 T0 : 04233728 `  PUSH_R : stis   r15, SS:[rsp + 0xfffffffffffffff8]'
commithead::src op[0] value is:0  arch reg:16 physical reg:16(flat:16)
commithead::src op[1] value is:140737488350720  arch reg:4 physical reg:57(flat:57)
commithead::src op[2] value is:0  arch reg:15 physical reg:15(flat:15)

in commit,getFromRename:0renamequeue:0in rename:
i am in wake up renamer instT0 : 04233728 `  PUSH_R : subi   rsp, rsp, 0x8'
0 T0 : 04233728 `  PUSH_R : subi   rsp, rsp, 0x8'
rename tick,before toIQ:1,toRob:0,storesInProgress:0
from IEW:dispatched:0 from commit:getfromrename:0
,dispatchedToSQ:0rename tick,after: toIQInProgress:1,toRobInProgress0storesInProgress:0

in iew ,inst_from_rename size:0
in iew 
in iew sorted inst, get exe inst:0
in commit,getFromRename:0renamequeue:0in rename:
rename tick,before toIQ:1,toRob:0,storesInProgress:0
from IEW:dispatched:0 from commit:getfromrename:0
,dispatchedToSQ:0rename tick,after: toIQInProgress:1,toRobInProgress0storesInProgress:0

in iew ,inst_from_rename size:0
in iew 
in iew sorted inst, get exe inst:0
in commit,getFromRename:0renamequeue:0in rename:
rename tick,before toIQ:1,toRob:0,storesInProgress:0
from IEW:dispatched:0 from commit:getfromrename:0
,dispatchedToSQ:0rename tick,after: toIQInProgress:1,toRobInProgress0storesInProgress:0

in iew ,inst_from_rename size:1
in iew 
0 T0 : 04233728 `  PUSH_R : subi   rsp, rsp, 0x8'
in iew sorted inst, get exe inst:1
in commit,getFromRename:0renamequeue:0in rename:
rename tick,before toIQ:1,toRob:0,storesInProgress:0
from IEW:dispatched:1 from commit:getfromrename:0
,dispatchedToSQ:0rename tick,after: toIQInProgress:0,toRobInProgress0storesInProgress:0

in iew ,inst_from_rename size:0
in iew 
in iew sorted inst, get exe inst:0
in commit,getFromRename:0renamequeue:0in rename:
rename tick,before toIQ:0,toRob:0,storesInProgress:0
from IEW:dispatched:0 from commit:getfromrename:0
,dispatchedToSQ:0rename tick,after: toIQInProgress:0,toRobInProgress0storesInProgress:0

in iew ,inst_from_rename size:0
in iew 
in iew sorted inst, get exe inst:0
in commit,getFromRename:0renamequeue:0in rename:
rename tick,before toIQ:0,toRob:0,storesInProgress:0
from IEW:dispatched:0 from commit:getfromrename:0
,dispatchedToSQ:0rename tick,after: toIQInProgress:0,toRobInProgress0storesInProgress:0

in iew ,inst_from_rename size:0
in iew 
in iew sorted inst, get exe inst:0
commithead:: SN:23 val:140737488350712 T0 : 04233728 `  PUSH_R : subi   rsp, rsp, 0x8'
commithead::src op[0] value is:140737488350720  arch reg:4 physical reg:57(flat:57)
commithead:: dest op[0] value is:140737488350712  arch reg:4 physical reg:60(flat:60)

in commit,getFromRename:0renamequeue:0in rename:
i am in wake up renamer instT0 : 04233730 `  MOVSXD_R_R : sexti   rax, rsi, 0x1f'
0 T0 : 04233730 `  MOVSXD_R_R : sexti   rax, rsi, 0x1f'
rename tick,before toIQ:1,toRob:0,storesInProgress:0
from IEW:dispatched:0 from commit:getfromrename:0
,dispatchedToSQ:0rename tick,after: toIQInProgress:1,toRobInProgress0storesInProgress:0

in iew ,inst_from_rename size:0
in iew 
in iew sorted inst, get exe inst:0
in commit,getFromRename:0renamequeue:0in rename:
rename tick,before toIQ:1,toRob:0,storesInProgress:0
from IEW:dispatched:0 from commit:getfromrename:0
,dispatchedToSQ:0rename tick,after: toIQInProgress:1,toRobInProgress0storesInProgress:0

in iew ,inst_from_rename size:0
in iew 
in iew sorted inst, get exe inst:0
in commit,getFromRename:0renamequeue:0in rename:
rename tick,before toIQ:1,toRob:0,storesInProgress:0
from IEW:dispatched:0 from commit:getfromrename:0
,dispatchedToSQ:0rename tick,after: toIQInProgress:1,toRobInProgress0storesInProgress:0

in iew ,inst_from_rename size:1
in iew 
0 T0 : 04233730 `  MOVSXD_R_R : sexti   rax, rsi, 0x1f'
in iew sorted inst, get exe inst:1
in commit,getFromRename:0renamequeue:0in rename:
rename tick,before toIQ:1,toRob:0,storesInProgress:0
from IEW:dispatched:1 from commit:getfromrename:0
,dispatchedToSQ:0rename tick,after: toIQInProgress:0,toRobInProgress0storesInProgress:0

in iew ,inst_from_rename size:0
in iew 
in iew sorted inst, get exe inst:0
in commit,getFromRename:0renamequeue:0in rename:
rename tick,before toIQ:0,toRob:0,storesInProgress:0
from IEW:dispatched:0 from commit:getfromrename:0
,dispatchedToSQ:0rename tick,after: toIQInProgress:0,toRobInProgress0storesInProgress:0

in iew ,inst_from_rename size:0
in iew 
in iew sorted inst, get exe inst:0
in commit,getFromRename:0renamequeue:0in rename:
rename tick,before toIQ:0,toRob:0,storesInProgress:0
from IEW:dispatched:0 from commit:getfromrename:0
,dispatchedToSQ:0rename tick,after: toIQInProgress:0,toRobInProgress0storesInProgress:0

in iew ,inst_from_rename size:0
in iew 
in iew sorted inst, get exe inst:0
commithead:: SN:24 val:1 T0 : 04233730 `  MOVSXD_R_R : sexti   rax, rsi, 0x1f'
commithead::src op[0] value is:1  arch reg:6 physical reg:42(flat:42)
commithead:: dest op[0] value is:1  arch reg:0 physical reg:61(flat:61)

in commit,getFromRename:0renamequeue:0in rename:
i am in wake up renamer instT0 : 04233733 `  MOV_R_R : mov   r15, r15, r9'
0 T0 : 04233733 `  MOV_R_R : mov   r15, r15, r9'
rename tick,before toIQ:1,toRob:0,storesInProgress:0
from IEW:dispatched:0 from commit:getfromrename:0
,dispatchedToSQ:0rename tick,after: toIQInProgress:1,toRobInProgress0storesInProgress:0

in iew ,inst_from_rename size:0
in iew 
in iew sorted inst, get exe inst:0
in commit,getFromRename:0renamequeue:0in rename:
rename tick,before toIQ:1,toRob:0,storesInProgress:0
from IEW:dispatched:0 from commit:getfromrename:0
,dispatchedToSQ:0rename tick,after: toIQInProgress:1,toRobInProgress0storesInProgress:0

in iew ,inst_from_rename size:0
in iew 
in iew sorted inst, get exe inst:0
in commit,getFromRename:0renamequeue:0in rename:
rename tick,before toIQ:1,toRob:0,storesInProgress:0
from IEW:dispatched:0 from commit:getfromrename:0
,dispatchedToSQ:0rename tick,after: toIQInProgress:1,toRobInProgress0storesInProgress:0

in iew ,inst_from_rename size:1
in iew 
0 T0 : 04233733 `  MOV_R_R : mov   r15, r15, r9'
in iew sorted inst, get exe inst:1
in commit,getFromRename:0renamequeue:0in rename:
rename tick,before toIQ:1,toRob:0,storesInProgress:0
from IEW:dispatched:1 from commit:getfromrename:0
,dispatchedToSQ:0rename tick,after: toIQInProgress:0,toRobInProgress0storesInProgress:0

in iew ,inst_from_rename size:0
in iew 
in iew sorted inst, get exe inst:0
in commit,getFromRename:0renamequeue:0in rename:
rename tick,before toIQ:0,toRob:0,storesInProgress:0
from IEW:dispatched:0 from commit:getfromrename:0
,dispatchedToSQ:0rename tick,after: toIQInProgress:0,toRobInProgress0storesInProgress:0

in iew ,inst_from_rename size:0
in iew 
in iew sorted inst, get exe inst:0
in commit,getFromRename:0renamequeue:0in rename:
rename tick,before toIQ:0,toRob:0,storesInProgress:0
from IEW:dispatched:0 from commit:getfromrename:0
,dispatchedToSQ:0rename tick,after: toIQInProgress:0,toRobInProgress0storesInProgress:0

in iew ,inst_from_rename size:0
in iew 
in iew sorted inst, get exe inst:0
commithead:: SN:25 val:0 T0 : 04233733 `  MOV_R_R : mov   r15, r15, r9'
commithead::src op[0] value is:0  arch reg:15 physical reg:15(flat:15)
commithead::src op[1] value is:0  arch reg:9 physical reg:39(flat:39)
commithead::src op[2] value is:0  arch reg:15 physical reg:15(flat:15)
commithead:: dest op[0] value is:0  arch reg:15 physical reg:62(flat:62)

commithead:: SN:26 val:0 T0 : 04233736 `  PUSH_R : stis   r14, SS:[rsp + 0xfffffffffffffff8]'
commithead::src op[0] value is:0  arch reg:16 physical reg:16(flat:16)
commithead::src op[1] value is:140737488350744  arch reg:4 physical reg:53(flat:53)
commithead::src op[2] value is:0  arch reg:14 physical reg:14(flat:14)

commithead:: SN:27 val:140737488350736 T0 : 04233736 `  PUSH_R : subi   rsp, rsp, 0x8'
commithead::src op[0] value is:140737488350744  arch reg:4 physical reg:53(flat:53)
commithead:: dest op[0] value is:140737488350736  arch reg:4 physical reg:54(flat:54)

commithead:: SN:28 val:140737488350776 T0 : 04233738 `  MOV_R_R : mov   r14, r14, rdx'
commithead::src op[0] value is:0  arch reg:14 physical reg:14(flat:14)
commithead::src op[1] value is:140737488350776  arch reg:2 physical reg:43(flat:43)
commithead::src op[2] value is:0  arch reg:14 physical reg:14(flat:14)
commithead:: dest op[0] value is:140737488350776  arch reg:14 physical reg:55(flat:55)

commithead:: SN:29 val:0 T0 : 04233741 `  PUSH_R : stis   r13, SS:[rsp + 0xfffffffffffffff8]'
commithead::src op[0] value is:0  arch reg:16 physical reg:16(flat:16)
commithead::src op[1] value is:140737488350736  arch reg:4 physical reg:54(flat:54)
commithead::src op[2] value is:0  arch reg:13 physical reg:13(flat:13)

in commit,getFromRename:0renamequeue:0in rename:
i am in wake up renamer instT0 : 04233741 `  PUSH_R : subi   rsp, rsp, 0x8'
0 T0 : 04233741 `  PUSH_R : subi   rsp, rsp, 0x8'
rename tick,before toIQ:1,toRob:0,storesInProgress:0
from IEW:dispatched:0 from commit:getfromrename:0
,dispatchedToSQ:0rename tick,after: toIQInProgress:1,toRobInProgress0storesInProgress:0

in iew ,inst_from_rename size:0
in iew 
in iew sorted inst, get exe inst:0
in commit,getFromRename:0renamequeue:0in rename:
rename tick,before toIQ:1,toRob:0,storesInProgress:0
from IEW:dispatched:0 from commit:getfromrename:0
,dispatchedToSQ:0rename tick,after: toIQInProgress:1,toRobInProgress0storesInProgress:0

in iew ,inst_from_rename size:0
in iew 
in iew sorted inst, get exe inst:0
in commit,getFromRename:0renamequeue:0in rename:
rename tick,before toIQ:1,toRob:0,storesInProgress:0
from IEW:dispatched:0 from commit:getfromrename:0
,dispatchedToSQ:0rename tick,after: toIQInProgress:1,toRobInProgress0storesInProgress:0

in iew ,inst_from_rename size:1
in iew 
0 T0 : 04233741 `  PUSH_R : subi   rsp, rsp, 0x8'
in iew sorted inst, get exe inst:1
in commit,getFromRename:0renamequeue:0in rename:
rename tick,before toIQ:1,toRob:0,storesInProgress:0
from IEW:dispatched:1 from commit:getfromrename:0
,dispatchedToSQ:0rename tick,after: toIQInProgress:0,toRobInProgress0storesInProgress:0

in iew ,inst_from_rename size:0
in iew 
in iew sorted inst, get exe inst:0
in commit,getFromRename:0renamequeue:0in rename:
rename tick,before toIQ:0,toRob:0,storesInProgress:0
from IEW:dispatched:0 from commit:getfromrename:0
,dispatchedToSQ:0rename tick,after: toIQInProgress:0,toRobInProgress0storesInProgress:0

in iew ,inst_from_rename size:0
in iew 
in iew sorted inst, get exe inst:0
in commit,getFromRename:0renamequeue:0in rename:
rename tick,before toIQ:0,toRob:0,storesInProgress:0
from IEW:dispatched:0 from commit:getfromrename:0
,dispatchedToSQ:0rename tick,after: toIQInProgress:0,toRobInProgress0storesInProgress:0

in iew ,inst_from_rename size:0
in iew 
in iew sorted inst, get exe inst:0
commithead:: SN:30 val:140737488350704 T0 : 04233741 `  PUSH_R : subi   rsp, rsp, 0x8'
commithead::src op[0] value is:140737488350712  arch reg:4 physical reg:60(flat:60)
commithead:: dest op[0] value is:140737488350704  arch reg:4 physical reg:63(flat:63)

in commit,getFromRename:0renamequeue:0in rename:
i am in wake up renamer instT0 : 04233743 `  MOV_R_R : mov   r13d, r13d, esi'
0 T0 : 04233743 `  MOV_R_R : mov   r13d, r13d, esi'
rename tick,before toIQ:1,toRob:0,storesInProgress:0
from IEW:dispatched:0 from commit:getfromrename:0
,dispatchedToSQ:0rename tick,after: toIQInProgress:1,toRobInProgress0storesInProgress:0

in iew ,inst_from_rename size:0
in iew 
in iew sorted inst, get exe inst:0
in commit,getFromRename:0renamequeue:0in rename:
rename tick,before toIQ:1,toRob:0,storesInProgress:0
from IEW:dispatched:0 from commit:getfromrename:0
,dispatchedToSQ:0rename tick,after: toIQInProgress:1,toRobInProgress0storesInProgress:0

in iew ,inst_from_rename size:0
in iew 
in iew sorted inst, get exe inst:0
in commit,getFromRename:0renamequeue:0in rename:
rename tick,before toIQ:1,toRob:0,storesInProgress:0
from IEW:dispatched:0 from commit:getfromrename:0
,dispatchedToSQ:0rename tick,after: toIQInProgress:1,toRobInProgress0storesInProgress:0

in iew ,inst_from_rename size:1
in iew 
0 T0 : 04233743 `  MOV_R_R : mov   r13d, r13d, esi'
in iew sorted inst, get exe inst:1
in commit,getFromRename:0renamequeue:0in rename:
rename tick,before toIQ:1,toRob:0,storesInProgress:0
from IEW:dispatched:1 from commit:getfromrename:0
,dispatchedToSQ:0rename tick,after: toIQInProgress:0,toRobInProgress0storesInProgress:0

in iew ,inst_from_rename size:0
in iew 
in iew sorted inst, get exe inst:0
in commit,getFromRename:0renamequeue:0in rename:
rename tick,before toIQ:0,toRob:0,storesInProgress:0
from IEW:dispatched:0 from commit:getfromrename:0
,dispatchedToSQ:0rename tick,after: toIQInProgress:0,toRobInProgress0storesInProgress:0

in iew ,inst_from_rename size:0
in iew 
in iew sorted inst, get exe inst:0
in commit,getFromRename:0renamequeue:0in rename:
rename tick,before toIQ:0,toRob:0,storesInProgress:0
from IEW:dispatched:0 from commit:getfromrename:0
,dispatchedToSQ:0rename tick,after: toIQInProgress:0,toRobInProgress0storesInProgress:0

in iew ,inst_from_rename size:0
in iew 
in iew sorted inst, get exe inst:0
commithead:: SN:31 val:1 T0 : 04233743 `  MOV_R_R : mov   r13d, r13d, esi'
commithead::src op[0] value is:0  arch reg:13 physical reg:13(flat:13)
commithead::src op[1] value is:1  arch reg:6 physical reg:42(flat:42)
commithead::src op[2] value is:0  arch reg:13 physical reg:13(flat:13)
commithead:: dest op[0] value is:1  arch reg:13 physical reg:64(flat:64)

in commit,getFromRename:0renamequeue:0in rename:
i am in wake up renamer instT0 : 04233746 `  PUSH_R : stis   r12, SS:[rsp + 0xfffffffffffffff8]'
0 T0 : 04233746 `  PUSH_R : stis   r12, SS:[rsp + 0xfffffffffffffff8]'
rename tick,before toIQ:1,toRob:0,storesInProgress:1
from IEW:dispatched:0 from commit:getfromrename:0
,dispatchedToSQ:0rename tick,after: toIQInProgress:1,toRobInProgress0storesInProgress:1

in iew ,inst_from_rename size:0
in iew 
in iew sorted inst, get exe inst:0
in commit,getFromRename:0renamequeue:0in rename:
rename tick,before toIQ:1,toRob:0,storesInProgress:1
from IEW:dispatched:0 from commit:getfromrename:0
,dispatchedToSQ:0rename tick,after: toIQInProgress:1,toRobInProgress0storesInProgress:1

in iew ,inst_from_rename size:0
in iew 
in iew sorted inst, get exe inst:0
in commit,getFromRename:0renamequeue:0in rename:
rename tick,before toIQ:1,toRob:0,storesInProgress:1
from IEW:dispatched:0 from commit:getfromrename:0
,dispatchedToSQ:0rename tick,after: toIQInProgress:1,toRobInProgress0storesInProgress:1

in iew ,inst_from_rename size:1
in iew 
0 T0 : 04233746 `  PUSH_R : stis   r12, SS:[rsp + 0xfffffffffffffff8]'
in iew sorted inst, get exe inst:1
in commit,getFromRename:0renamequeue:0in rename:
rename tick,before toIQ:1,toRob:0,storesInProgress:1
from IEW:dispatched:1 from commit:getfromrename:0
,dispatchedToSQ:1rename tick,after: toIQInProgress:0,toRobInProgress0storesInProgress:0

in iew ,inst_from_rename size:0
in iew 
in iew sorted inst, get exe inst:0
in commit,getFromRename:0renamequeue:0in rename:
rename tick,before toIQ:0,toRob:0,storesInProgress:0
from IEW:dispatched:0 from commit:getfromrename:0
,dispatchedToSQ:0rename tick,after: toIQInProgress:0,toRobInProgress0storesInProgress:0

in iew ,inst_from_rename size:0
in iew 
in iew sorted inst, get exe inst:0
in commit,getFromRename:0renamequeue:0in rename:
rename tick,before toIQ:0,toRob:0,storesInProgress:0
from IEW:dispatched:0 from commit:getfromrename:0
,dispatchedToSQ:0rename tick,after: toIQInProgress:0,toRobInProgress0storesInProgress:0

in iew ,inst_from_rename size:0
in iew 
in iew sorted inst, get exe inst:0
commithead:: SN:32 val:0 T0 : 04233746 `  PUSH_R : stis   r12, SS:[rsp + 0xfffffffffffffff8]'
commithead::src op[0] value is:0  arch reg:16 physical reg:16(flat:16)
commithead::src op[1] value is:140737488350704  arch reg:4 physical reg:63(flat:63)
commithead::src op[2] value is:0  arch reg:12 physical reg:12(flat:12)

in commit,getFromRename:0renamequeue:0in rename:
i am in wake up renamer instT0 : 04233746 `  PUSH_R : subi   rsp, rsp, 0x8'
0 T0 : 04233746 `  PUSH_R : subi   rsp, rsp, 0x8'
rename tick,before toIQ:1,toRob:0,storesInProgress:0
from IEW:dispatched:0 from commit:getfromrename:0
,dispatchedToSQ:0rename tick,after: toIQInProgress:1,toRobInProgress0storesInProgress:0

in iew ,inst_from_rename size:0
in iew 
in iew sorted inst, get exe inst:0
in commit,getFromRename:0renamequeue:0in rename:
rename tick,before toIQ:1,toRob:0,storesInProgress:0
from IEW:dispatched:0 from commit:getfromrename:0
,dispatchedToSQ:0rename tick,after: toIQInProgress:1,toRobInProgress0storesInProgress:0

in iew ,inst_from_rename size:0
in iew 
in iew sorted inst, get exe inst:0
in commit,getFromRename:0renamequeue:0in rename:
rename tick,before toIQ:1,toRob:0,storesInProgress:0
from IEW:dispatched:0 from commit:getfromrename:0
,dispatchedToSQ:0rename tick,after: toIQInProgress:1,toRobInProgress0storesInProgress:0

in iew ,inst_from_rename size:1
in iew 
0 T0 : 04233746 `  PUSH_R : subi   rsp, rsp, 0x8'
in iew sorted inst, get exe inst:1
in commit,getFromRename:0renamequeue:0in rename:
rename tick,before toIQ:1,toRob:0,storesInProgress:0
from IEW:dispatched:1 from commit:getfromrename:0
,dispatchedToSQ:0rename tick,after: toIQInProgress:0,toRobInProgress0storesInProgress:0

in iew ,inst_from_rename size:0
in iew 
in iew sorted inst, get exe inst:0
in commit,getFromRename:0renamequeue:0in rename:
rename tick,before toIQ:0,toRob:0,storesInProgress:0
from IEW:dispatched:0 from commit:getfromrename:0
,dispatchedToSQ:0rename tick,after: toIQInProgress:0,toRobInProgress0storesInProgress:0

in iew ,inst_from_rename size:0
in iew 
in iew sorted inst, get exe inst:0
in commit,getFromRename:0renamequeue:0in rename:
rename tick,before toIQ:0,toRob:0,storesInProgress:0
from IEW:dispatched:0 from commit:getfromrename:0
,dispatchedToSQ:0rename tick,after: toIQInProgress:0,toRobInProgress0storesInProgress:0

in iew ,inst_from_rename size:0
in iew 
in iew sorted inst, get exe inst:0
commithead:: SN:33 val:140737488350696 T0 : 04233746 `  PUSH_R : subi   rsp, rsp, 0x8'
commithead::src op[0] value is:140737488350704  arch reg:4 physical reg:63(flat:63)
commithead:: dest op[0] value is:140737488350696  arch reg:4 physical reg:65(flat:65)

commithead:: SN:34 val:0 T0 : 04233748 `  PUSH_R : stis   rbp, SS:[rsp + 0xfffffffffffffff8]'
commithead::src op[0] value is:0  arch reg:16 physical reg:16(flat:16)
commithead::src op[1] value is:140737488350736  arch reg:4 physical reg:54(flat:54)
commithead::src op[2] value is:0  arch reg:5 physical reg:38(flat:38)

commithead:: SN:35 val:140737488350728 T0 : 04233748 `  PUSH_R : subi   rsp, rsp, 0x8'
commithead::src op[0] value is:140737488350736  arch reg:4 physical reg:54(flat:54)
commithead:: dest op[0] value is:140737488350728  arch reg:4 physical reg:56(flat:56)

commithead:: SN:36 val:0 T0 : 04233749 `  PUSH_R : stis   rbx, SS:[rsp + 0xfffffffffffffff8]'
commithead::src op[0] value is:0  arch reg:16 physical reg:16(flat:16)
commithead::src op[1] value is:140737488350728  arch reg:4 physical reg:56(flat:56)
commithead::src op[2] value is:0  arch reg:3 physical reg:3(flat:3)

commithead:: SN:37 val:140737488350720 T0 : 04233749 `  PUSH_R : subi   rsp, rsp, 0x8'
commithead::src op[0] value is:140737488350728  arch reg:4 physical reg:56(flat:56)
commithead:: dest op[0] value is:140737488350720  arch reg:4 physical reg:57(flat:57)

in commit,getFromRename:0renamequeue:0in rename:
i am in wake up renamer instT0 : 04233750 `  SUB_R_I : limm   t1, 0x1f8'
0 T0 : 04233750 `  SUB_R_I : limm   t1, 0x1f8'
rename tick,before toIQ:1,toRob:0,storesInProgress:0
from IEW:dispatched:0 from commit:getfromrename:0
,dispatchedToSQ:0rename tick,after: toIQInProgress:1,toRobInProgress0storesInProgress:0

in iew ,inst_from_rename size:0
in iew 
in iew sorted inst, get exe inst:0
in commit,getFromRename:0renamequeue:0in rename:
rename tick,before toIQ:1,toRob:0,storesInProgress:0
from IEW:dispatched:0 from commit:getfromrename:0
,dispatchedToSQ:0rename tick,after: toIQInProgress:1,toRobInProgress0storesInProgress:0

in iew ,inst_from_rename size:0
in iew 
in iew sorted inst, get exe inst:0
in commit,getFromRename:0renamequeue:0in rename:
rename tick,before toIQ:1,toRob:0,storesInProgress:0
from IEW:dispatched:0 from commit:getfromrename:0
,dispatchedToSQ:0rename tick,after: toIQInProgress:1,toRobInProgress0storesInProgress:0

in iew ,inst_from_rename size:1
in iew 
0 T0 : 04233750 `  SUB_R_I : limm   t1, 0x1f8'
in iew sorted inst, get exe inst:1
in commit,getFromRename:0renamequeue:0in rename:
rename tick,before toIQ:1,toRob:0,storesInProgress:0
from IEW:dispatched:1 from commit:getfromrename:0
,dispatchedToSQ:0rename tick,after: toIQInProgress:0,toRobInProgress0storesInProgress:0

in iew ,inst_from_rename size:0
in iew 
in iew sorted inst, get exe inst:0
in commit,getFromRename:0renamequeue:0in rename:
rename tick,before toIQ:0,toRob:0,storesInProgress:0
from IEW:dispatched:0 from commit:getfromrename:0
,dispatchedToSQ:0rename tick,after: toIQInProgress:0,toRobInProgress0storesInProgress:0

in iew ,inst_from_rename size:0
in iew 
in iew sorted inst, get exe inst:0
in commit,getFromRename:0renamequeue:0in rename:
rename tick,before toIQ:0,toRob:0,storesInProgress:0
from IEW:dispatched:0 from commit:getfromrename:0
,dispatchedToSQ:0rename tick,after: toIQInProgress:0,toRobInProgress0storesInProgress:0

in iew ,inst_from_rename size:0
in iew 
in iew sorted inst, get exe inst:0
commithead:: SN:38 val:504 T0 : 04233750 `  SUB_R_I : limm   t1, 0x1f8'
commithead:: dest op[0] value is:504  arch reg:17 physical reg:66(flat:66)

in commit,getFromRename:0renamequeue:0in rename:
i am in wake up renamer instT0 : 04233750 `  SUB_R_I : sub   rsp, rsp, t1'
0 T0 : 04233750 `  SUB_R_I : sub   rsp, rsp, t1'
rename tick,before toIQ:1,toRob:0,storesInProgress:0
from IEW:dispatched:0 from commit:getfromrename:0
,dispatchedToSQ:0rename tick,after: toIQInProgress:1,toRobInProgress0storesInProgress:0

in iew ,inst_from_rename size:0
in iew 
in iew sorted inst, get exe inst:0
in commit,getFromRename:0renamequeue:0in rename:
rename tick,before toIQ:1,toRob:0,storesInProgress:0
from IEW:dispatched:0 from commit:getfromrename:0
,dispatchedToSQ:0rename tick,after: toIQInProgress:1,toRobInProgress0storesInProgress:0

in iew ,inst_from_rename size:0
in iew 
in iew sorted inst, get exe inst:0
in commit,getFromRename:0renamequeue:0in rename:
rename tick,before toIQ:1,toRob:0,storesInProgress:0
from IEW:dispatched:0 from commit:getfromrename:0
,dispatchedToSQ:0rename tick,after: toIQInProgress:1,toRobInProgress0storesInProgress:0

in iew ,inst_from_rename size:1
in iew 
0 T0 : 04233750 `  SUB_R_I : sub   rsp, rsp, t1'
in iew sorted inst, get exe inst:1
in commit,getFromRename:0renamequeue:0in rename:
rename tick,before toIQ:1,toRob:0,storesInProgress:0
from IEW:dispatched:1 from commit:getfromrename:0
,dispatchedToSQ:0rename tick,after: toIQInProgress:0,toRobInProgress0storesInProgress:0

in iew ,inst_from_rename size:0
in iew 
in iew sorted inst, get exe inst:0
in commit,getFromRename:0renamequeue:0in rename:
rename tick,before toIQ:0,toRob:0,storesInProgress:0
from IEW:dispatched:0 from commit:getfromrename:0
,dispatchedToSQ:0rename tick,after: toIQInProgress:0,toRobInProgress0storesInProgress:0

in iew ,inst_from_rename size:0
in iew 
in iew sorted inst, get exe inst:0
in commit,getFromRename:0renamequeue:0in rename:
rename tick,before toIQ:0,toRob:0,storesInProgress:0
from IEW:dispatched:0 from commit:getfromrename:0
,dispatchedToSQ:0rename tick,after: toIQInProgress:0,toRobInProgress0storesInProgress:0

in iew ,inst_from_rename size:0
in iew 
in iew sorted inst, get exe inst:0
commithead:: SN:39 val:140737488350192 T0 : 04233750 `  SUB_R_I : sub   rsp, rsp, t1'
commithead::src op[0] value is:140737488350696  arch reg:4 physical reg:65(flat:65)
commithead::src op[1] value is:504  arch reg:17 physical reg:66(flat:66)
commithead:: dest op[0] value is:140737488350192  arch reg:4 physical reg:67(flat:67)

in commit,getFromRename:0renamequeue:0in rename:
i am in wake up renamer instT0 : 04233757 `  MOV_M_R : st   rdi, DS:[rsp + 0x18]'
0 T0 : 04233757 `  MOV_M_R : st   rdi, DS:[rsp + 0x18]'
rename tick,before toIQ:1,toRob:0,storesInProgress:1
from IEW:dispatched:0 from commit:getfromrename:0
,dispatchedToSQ:0rename tick,after: toIQInProgress:1,toRobInProgress0storesInProgress:1

in iew ,inst_from_rename size:0
in iew 
in iew sorted inst, get exe inst:0
in commit,getFromRename:0renamequeue:0in rename:
rename tick,before toIQ:1,toRob:0,storesInProgress:1
from IEW:dispatched:0 from commit:getfromrename:0
,dispatchedToSQ:0rename tick,after: toIQInProgress:1,toRobInProgress0storesInProgress:1

in iew ,inst_from_rename size:0
in iew 
in iew sorted inst, get exe inst:0
in commit,getFromRename:0renamequeue:0in rename:
rename tick,before toIQ:1,toRob:0,storesInProgress:1
from IEW:dispatched:0 from commit:getfromrename:0
,dispatchedToSQ:0rename tick,after: toIQInProgress:1,toRobInProgress0storesInProgress:1

in iew ,inst_from_rename size:1
in iew 
0 T0 : 04233757 `  MOV_M_R : st   rdi, DS:[rsp + 0x18]'
in iew sorted inst, get exe inst:1
in commit,getFromRename:0renamequeue:0in rename:
rename tick,before toIQ:1,toRob:0,storesInProgress:1
from IEW:dispatched:1 from commit:getfromrename:0
,dispatchedToSQ:1rename tick,after: toIQInProgress:0,toRobInProgress0storesInProgress:0

in iew ,inst_from_rename size:0
in iew 
in iew sorted inst, get exe inst:0
in commit,getFromRename:0renamequeue:0in rename:
rename tick,before toIQ:0,toRob:0,storesInProgress:0
from IEW:dispatched:0 from commit:getfromrename:0
,dispatchedToSQ:0rename tick,after: toIQInProgress:0,toRobInProgress0storesInProgress:0

in iew ,inst_from_rename size:0
in iew 
in iew sorted inst, get exe inst:0
in commit,getFromRename:0renamequeue:0in rename:
rename tick,before toIQ:0,toRob:0,storesInProgress:0
from IEW:dispatched:0 from commit:getfromrename:0
,dispatchedToSQ:0rename tick,after: toIQInProgress:0,toRobInProgress0storesInProgress:0

in iew ,inst_from_rename size:0
in iew 
in iew sorted inst, get exe inst:0
commithead:: SN:40 val:0 T0 : 04233757 `  MOV_M_R : st   rdi, DS:[rsp + 0x18]'
commithead::src op[0] value is:0  arch reg:16 physical reg:16(flat:16)
commithead::src op[1] value is:140737488350192  arch reg:4 physical reg:67(flat:67)
commithead::src op[2] value is:4194932  arch reg:7 physical reg:50(flat:50)

in commit,getFromRename:0renamequeue:0in rename:
i am in wake up renamer instT0 : 04233762 `  LEA_R_M : lea   rdi, DS:[8*rax + rdx + 0x8]'
0 T0 : 04233762 `  LEA_R_M : lea   rdi, DS:[8*rax + rdx + 0x8]'
rename tick,before toIQ:1,toRob:0,storesInProgress:0
from IEW:dispatched:0 from commit:getfromrename:0
,dispatchedToSQ:0rename tick,after: toIQInProgress:1,toRobInProgress0storesInProgress:0

in iew ,inst_from_rename size:0
in iew 
in iew sorted inst, get exe inst:0
in commit,getFromRename:0renamequeue:0in rename:
rename tick,before toIQ:1,toRob:0,storesInProgress:0
from IEW:dispatched:0 from commit:getfromrename:0
,dispatchedToSQ:0rename tick,after: toIQInProgress:1,toRobInProgress0storesInProgress:0

in iew ,inst_from_rename size:0
in iew 
in iew sorted inst, get exe inst:0
in commit,getFromRename:0renamequeue:0in rename:
rename tick,before toIQ:1,toRob:0,storesInProgress:0
from IEW:dispatched:0 from commit:getfromrename:0
,dispatchedToSQ:0rename tick,after: toIQInProgress:1,toRobInProgress0storesInProgress:0

in iew ,inst_from_rename size:1
in iew 
0 T0 : 04233762 `  LEA_R_M : lea   rdi, DS:[8*rax + rdx + 0x8]'
in iew sorted inst, get exe inst:1
in commit,getFromRename:0renamequeue:0in rename:
rename tick,before toIQ:1,toRob:0,storesInProgress:0
from IEW:dispatched:1 from commit:getfromrename:0
,dispatchedToSQ:0rename tick,after: toIQInProgress:0,toRobInProgress0storesInProgress:0

in iew ,inst_from_rename size:0
in iew 
in iew sorted inst, get exe inst:0
in commit,getFromRename:0renamequeue:0in rename:
rename tick,before toIQ:0,toRob:0,storesInProgress:0
from IEW:dispatched:0 from commit:getfromrename:0
,dispatchedToSQ:0rename tick,after: toIQInProgress:0,toRobInProgress0storesInProgress:0

in iew ,inst_from_rename size:0
in iew 
in iew sorted inst, get exe inst:0
in commit,getFromRename:0renamequeue:0in rename:
rename tick,before toIQ:0,toRob:0,storesInProgress:0
from IEW:dispatched:0 from commit:getfromrename:0
,dispatchedToSQ:0rename tick,after: toIQInProgress:0,toRobInProgress0storesInProgress:0

in iew ,inst_from_rename size:0
in iew 
in iew sorted inst, get exe inst:0
commithead:: SN:41 val:16 T0 : 04233762 `  LEA_R_M : lea   rdi, DS:[8*rax + rdx + 0x8]'
commithead::src op[0] value is:1  arch reg:0 physical reg:61(flat:61)
commithead::src op[1] value is:0  arch reg:2 physical reg:59(flat:59)
commithead::src op[2] value is:4194932  arch reg:7 physical reg:50(flat:50)
commithead:: dest op[0] value is:16  arch reg:7 physical reg:68(flat:68)

commithead:: SN:42 val:0 T0 : 04233767 `  MOV_R_I : limm   eax, 0'
commithead:: dest op[0] value is:0  arch reg:0 physical reg:58(flat:58)

commithead:: SN:43 val:0 T0 : 04233772 `  XOR_R_R : xor   edx, edx, edx'
commithead::src op[0] value is:140737488350776  arch reg:2 physical reg:43(flat:43)
commithead::src op[1] value is:140737488350776  arch reg:2 physical reg:43(flat:43)
commithead:: dest op[0] value is:0  arch reg:2 physical reg:59(flat:59)

commithead:: SN:44 val:0 T0 : 04233774 `  TEST_R_R : and   t0, rax, rax'
commithead::src op[0] value is:0  arch reg:0 physical reg:58(flat:58)
commithead::src op[1] value is:0  arch reg:0 physical reg:58(flat:58)
commithead:: dest op[0] value is:0  arch reg:16 physical reg:16(flat:16)

commithead:: SN:45 val:0 T0 : 04233777 `  MOV_M_R : st   rcx, DS:[rsp + 0x10]'
commithead::src op[0] value is:0  arch reg:16 physical reg:16(flat:16)
commithead::src op[1] value is:140737488350720  arch reg:4 physical reg:57(flat:57)
commithead::src op[2] value is:4235248  arch reg:1 physical reg:49(flat:49)

in commit,getFromRename:0renamequeue:0in rename:
i am in wake up renamer instT0 : 04233782 `  MOV_M_R : st   r8, DS:[rsp + 0x8]'
0 T0 : 04233782 `  MOV_M_R : st   r8, DS:[rsp + 0x8]'
rename tick,before toIQ:1,toRob:0,storesInProgress:1
from IEW:dispatched:0 from commit:getfromrename:0
,dispatchedToSQ:0rename tick,after: toIQInProgress:1,toRobInProgress0storesInProgress:1

in iew ,inst_from_rename size:0
in iew 
in iew sorted inst, get exe inst:0
in commit,getFromRename:0renamequeue:0in rename:
rename tick,before toIQ:1,toRob:0,storesInProgress:1
from IEW:dispatched:0 from commit:getfromrename:0
,dispatchedToSQ:0rename tick,after: toIQInProgress:1,toRobInProgress0storesInProgress:1

in iew ,inst_from_rename size:0
in iew 
in iew sorted inst, get exe inst:0
in commit,getFromRename:0renamequeue:0in rename:
rename tick,before toIQ:1,toRob:0,storesInProgress:1
from IEW:dispatched:0 from commit:getfromrename:0
,dispatchedToSQ:0rename tick,after: toIQInProgress:1,toRobInProgress0storesInProgress:1

in iew ,inst_from_rename size:1
in iew 
0 T0 : 04233782 `  MOV_M_R : st   r8, DS:[rsp + 0x8]'
in iew sorted inst, get exe inst:1
in commit,getFromRename:0renamequeue:0in rename:
rename tick,before toIQ:1,toRob:0,storesInProgress:1
from IEW:dispatched:1 from commit:getfromrename:0
,dispatchedToSQ:1rename tick,after: toIQInProgress:0,toRobInProgress0storesInProgress:0

in iew ,inst_from_rename size:0
in iew 
in iew sorted inst, get exe inst:0
in commit,getFromRename:0renamequeue:0in rename:
rename tick,before toIQ:0,toRob:0,storesInProgress:0
from IEW:dispatched:0 from commit:getfromrename:0
,dispatchedToSQ:0rename tick,after: toIQInProgress:0,toRobInProgress0storesInProgress:0

in iew ,inst_from_rename size:0
in iew 
in iew sorted inst, get exe inst:0
in commit,getFromRename:0renamequeue:0in rename:
rename tick,before toIQ:0,toRob:0,storesInProgress:0
from IEW:dispatched:0 from commit:getfromrename:0
,dispatchedToSQ:0rename tick,after: toIQInProgress:0,toRobInProgress0storesInProgress:0

in iew ,inst_from_rename size:0
in iew 
in iew sorted inst, get exe inst:0
commithead:: SN:46 val:0 T0 : 04233782 `  MOV_M_R : st   r8, DS:[rsp + 0x8]'
commithead::src op[0] value is:0  arch reg:16 physical reg:16(flat:16)
commithead::src op[1] value is:140737488350192  arch reg:4 physical reg:67(flat:67)
commithead::src op[2] value is:4235360  arch reg:8 physical reg:48(flat:48)

in commit,getFromRename:0renamequeue:0in rename:
i am in wake up renamer instT0 : 04233787 `  JZ_I : rdip   t1, %ctrl153, '
0 T0 : 04233787 `  JZ_I : rdip   t1, %ctrl153, '
rename tick,before toIQ:1,toRob:0,storesInProgress:0
from IEW:dispatched:0 from commit:getfromrename:0
,dispatchedToSQ:0rename tick,after: toIQInProgress:1,toRobInProgress0storesInProgress:0

in iew ,inst_from_rename size:0
in iew 
in iew sorted inst, get exe inst:0
in commit,getFromRename:0renamequeue:0in rename:
rename tick,before toIQ:1,toRob:0,storesInProgress:0
from IEW:dispatched:0 from commit:getfromrename:0
,dispatchedToSQ:0rename tick,after: toIQInProgress:1,toRobInProgress0storesInProgress:0

in iew ,inst_from_rename size:0
in iew 
in iew sorted inst, get exe inst:0
in commit,getFromRename:0renamequeue:0in rename:
rename tick,before toIQ:1,toRob:0,storesInProgress:0
from IEW:dispatched:0 from commit:getfromrename:0
,dispatchedToSQ:0rename tick,after: toIQInProgress:1,toRobInProgress0storesInProgress:0

in iew ,inst_from_rename size:1
in iew 
0 T0 : 04233787 `  JZ_I : rdip   t1, %ctrl153, '
in iew sorted inst, get exe inst:1
in commit,getFromRename:0renamequeue:0in rename:
rename tick,before toIQ:1,toRob:0,storesInProgress:0
from IEW:dispatched:1 from commit:getfromrename:0
,dispatchedToSQ:0rename tick,after: toIQInProgress:0,toRobInProgress0storesInProgress:0

in iew ,inst_from_rename size:0
in iew 
in iew sorted inst, get exe inst:0
in commit,getFromRename:0renamequeue:0in rename:
rename tick,before toIQ:0,toRob:0,storesInProgress:0
from IEW:dispatched:0 from commit:getfromrename:0
,dispatchedToSQ:0rename tick,after: toIQInProgress:0,toRobInProgress0storesInProgress:0

in iew ,inst_from_rename size:0
in iew 
in iew sorted inst, get exe inst:0
in commit,getFromRename:0renamequeue:0in rename:
rename tick,before toIQ:0,toRob:0,storesInProgress:0
from IEW:dispatched:0 from commit:getfromrename:0
,dispatchedToSQ:0rename tick,after: toIQInProgress:0,toRobInProgress0storesInProgress:0

in iew ,inst_from_rename size:0
in iew 
in iew sorted inst, get exe inst:0
commithead:: SN:47 val:4233789 T0 : 04233787 `  JZ_I : rdip   t1, %ctrl153, '
commithead:: dest op[0] value is:4233789  arch reg:17 physical reg:69(flat:69)

in commit,getFromRename:0renamequeue:0in rename:
i am in wake up renamer instT0 : 04233787 `  JZ_I : limm   t2, 0x12'
0 T0 : 04233787 `  JZ_I : limm   t2, 0x12'
rename tick,before toIQ:1,toRob:0,storesInProgress:0
from IEW:dispatched:0 from commit:getfromrename:0
,dispatchedToSQ:0rename tick,after: toIQInProgress:1,toRobInProgress0storesInProgress:0

in iew ,inst_from_rename size:0
in iew 
in iew sorted inst, get exe inst:0
in commit,getFromRename:0renamequeue:0in rename:
rename tick,before toIQ:1,toRob:0,storesInProgress:0
from IEW:dispatched:0 from commit:getfromrename:0
,dispatchedToSQ:0rename tick,after: toIQInProgress:1,toRobInProgress0storesInProgress:0

in iew ,inst_from_rename size:0
in iew 
in iew sorted inst, get exe inst:0
in commit,getFromRename:0renamequeue:0in rename:
rename tick,before toIQ:1,toRob:0,storesInProgress:0
from IEW:dispatched:0 from commit:getfromrename:0
,dispatchedToSQ:0rename tick,after: toIQInProgress:1,toRobInProgress0storesInProgress:0

in iew ,inst_from_rename size:1
in iew 
0 T0 : 04233787 `  JZ_I : limm   t2, 0x12'
in iew sorted inst, get exe inst:1
in commit,getFromRename:0renamequeue:0in rename:
rename tick,before toIQ:1,toRob:0,storesInProgress:0
from IEW:dispatched:1 from commit:getfromrename:0
,dispatchedToSQ:0rename tick,after: toIQInProgress:0,toRobInProgress0storesInProgress:0

in iew ,inst_from_rename size:0
in iew 
in iew sorted inst, get exe inst:0
in commit,getFromRename:0renamequeue:0in rename:
rename tick,before toIQ:0,toRob:0,storesInProgress:0
from IEW:dispatched:0 from commit:getfromrename:0
,dispatchedToSQ:0rename tick,after: toIQInProgress:0,toRobInProgress0storesInProgress:0

in iew ,inst_from_rename size:0
in iew 
in iew sorted inst, get exe inst:0
in commit,getFromRename:0renamequeue:0in rename:
rename tick,before toIQ:0,toRob:0,storesInProgress:0
from IEW:dispatched:0 from commit:getfromrename:0
,dispatchedToSQ:0rename tick,after: toIQInProgress:0,toRobInProgress0storesInProgress:0

in iew ,inst_from_rename size:0
in iew 
in iew sorted inst, get exe inst:0
commithead:: SN:48 val:18 T0 : 04233787 `  JZ_I : limm   t2, 0x12'
commithead:: dest op[0] value is:18  arch reg:18 physical reg:70(flat:70)

in commit,getFromRename:0renamequeue:0in rename:
i am in wake up renamer instT0 : 04233787 `  JZ_I : wrip   , t1, t2'
0 T0 : 04233787 `  JZ_I : wrip   , t1, t2'
rename tick,before toIQ:1,toRob:0,storesInProgress:0
from IEW:dispatched:0 from commit:getfromrename:0
,dispatchedToSQ:0rename tick,after: toIQInProgress:1,toRobInProgress0storesInProgress:0

in iew ,inst_from_rename size:0
in iew 
in iew sorted inst, get exe inst:0
in commit,getFromRename:0renamequeue:0in rename:
rename tick,before toIQ:1,toRob:0,storesInProgress:0
from IEW:dispatched:0 from commit:getfromrename:0
,dispatchedToSQ:0rename tick,after: toIQInProgress:1,toRobInProgress0storesInProgress:0

in iew ,inst_from_rename size:0
in iew 
in iew sorted inst, get exe inst:0
in commit,getFromRename:0renamequeue:0in rename:
rename tick,before toIQ:1,toRob:0,storesInProgress:0
from IEW:dispatched:0 from commit:getfromrename:0
,dispatchedToSQ:0rename tick,after: toIQInProgress:1,toRobInProgress0storesInProgress:0

in iew ,inst_from_rename size:1
in iew 
0 T0 : 04233787 `  JZ_I : wrip   , t1, t2'
in iew sorted inst, get exe inst:1
in commit,getFromRename:0renamequeue:0in rename:
rename tick,before toIQ:1,toRob:0,storesInProgress:0
from IEW:dispatched:1 from commit:getfromrename:0
,dispatchedToSQ:0rename tick,after: toIQInProgress:0,toRobInProgress0storesInProgress:0

in iew ,inst_from_rename size:0
in iew 
in iew sorted inst, get exe inst:0
in commit,getFromRename:0renamequeue:0in rename:
rename tick,before toIQ:0,toRob:0,storesInProgress:0
from IEW:dispatched:0 from commit:getfromrename:0
,dispatchedToSQ:0rename tick,after: toIQInProgress:0,toRobInProgress0storesInProgress:0

in iew ,inst_from_rename size:0
in iew 
in iew sorted inst, get exe inst:0
in commit,getFromRename:0renamequeue:0in rename:
rename tick,before toIQ:0,toRob:0,storesInProgress:0
from IEW:dispatched:0 from commit:getfromrename:0
,dispatchedToSQ:0rename tick,after: toIQInProgress:0,toRobInProgress0storesInProgress:0

in iew ,inst_from_rename size:0
in iew 
in iew sorted inst, get exe inst:0
commithead:: SN:49 val:0 T0 : 04233787 `  JZ_I : wrip   , t1, t2'
commithead::src op[0] value is:4233789  arch reg:17 physical reg:69(flat:69)
commithead::src op[1] value is:18  arch reg:18 physical reg:70(flat:70)

in commit,getFromRename:0renamequeue:0in rename:
rename tick,before toIQ:0,toRob:0,storesInProgress:0
from IEW:dispatched:0 from commit:getfromrename:0
,dispatchedToSQ:0rename tick,after: toIQInProgress:0,toRobInProgress0storesInProgress:0

in iew ,inst_from_rename size:0
in iew 
in iew sorted inst, get exe inst:0
in commit,getFromRename:0renamequeue:0in rename:
rename tick,before toIQ:0,toRob:0,storesInProgress:0
from IEW:dispatched:0 from commit:getfromrename:0
,dispatchedToSQ:0rename tick,after: toIQInProgress:0,toRobInProgress0storesInProgress:0

in iew ,inst_from_rename size:0
in iew 
in iew sorted inst, get exe inst:0
in commit,getFromRename:0renamequeue:0in rename:
rename tick,before toIQ:0,toRob:0,storesInProgress:0
from IEW:dispatched:0 from commit:getfromrename:0
,dispatchedToSQ:0rename tick,after: toIQInProgress:0,toRobInProgress0storesInProgress:0

in iew ,inst_from_rename size:0
in iew 
in iew sorted inst, get exe inst:0
in commit,getFromRename:0renamequeue:0in rename:
rename tick,before toIQ:0,toRob:0,storesInProgress:0
from IEW:dispatched:0 from commit:getfromrename:0
,dispatchedToSQ:0rename tick,after: toIQInProgress:0,toRobInProgress0storesInProgress:0

in iew ,inst_from_rename size:0
in iew 
in iew sorted inst, get exe inst:0
in commit,getFromRename:0renamequeue:0in rename:
rename tick,before toIQ:0,toRob:0,storesInProgress:0
from IEW:dispatched:0 from commit:getfromrename:0
,dispatchedToSQ:0rename tick,after: toIQInProgress:0,toRobInProgress0storesInProgress:0

in iew ,inst_from_rename size:0
in iew 
in iew sorted inst, get exe inst:0
in commit,getFromRename:0renamequeue:0in rename:
rename tick,before toIQ:0,toRob:0,storesInProgress:0
from IEW:dispatched:0 from commit:getfromrename:0
,dispatchedToSQ:0rename tick,after: toIQInProgress:0,toRobInProgress0storesInProgress:0

in iew ,inst_from_rename size:0
in iew 
in iew sorted inst, get exe inst:0
in commit,getFromRename:0renamequeue:0in rename:
rename tick,before toIQ:0,toRob:0,storesInProgress:0
from IEW:dispatched:0 from commit:getfromrename:0
,dispatchedToSQ:0rename tick,after: toIQInProgress:0,toRobInProgress0storesInProgress:0

in iew ,inst_from_rename size:0
in iew 
in iew sorted inst, get exe inst:0
in commit,getFromRename:0renamequeue:0in rename:
rename tick,before toIQ:0,toRob:0,storesInProgress:0
from IEW:dispatched:0 from commit:getfromrename:0
,dispatchedToSQ:0rename tick,after: toIQInProgress:0,toRobInProgress0storesInProgress:0

in iew ,inst_from_rename size:0
in iew 
in iew sorted inst, get exe inst:0
in commit,getFromRename:0renamequeue:0in rename:
rename tick,before toIQ:0,toRob:0,storesInProgress:0
from IEW:dispatched:0 from commit:getfromrename:0
,dispatchedToSQ:0rename tick,after: toIQInProgress:0,toRobInProgress0storesInProgress:0

in iew ,inst_from_rename size:0
in iew 
in iew sorted inst, get exe inst:0
in commit,getFromRename:0renamequeue:0in rename:
rename tick,before toIQ:0,toRob:0,storesInProgress:0
from IEW:dispatched:0 from commit:getfromrename:0
,dispatchedToSQ:0rename tick,after: toIQInProgress:0,toRobInProgress0storesInProgress:0

in iew ,inst_from_rename size:0
in iew 
in iew sorted inst, get exe inst:0
in commit,getFromRename:0renamequeue:0in rename:
rename tick,before toIQ:0,toRob:0,storesInProgress:0
from IEW:dispatched:0 from commit:getfromrename:0
,dispatchedToSQ:0rename tick,after: toIQInProgress:0,toRobInProgress0storesInProgress:0

in iew ,inst_from_rename size:0
in iew 
in iew sorted inst, get exe inst:0
in commit,getFromRename:0renamequeue:0in rename:
rename tick,before toIQ:0,toRob:0,storesInProgress:0
from IEW:dispatched:0 from commit:getfromrename:0
,dispatchedToSQ:0rename tick,after: toIQInProgress:0,toRobInProgress0storesInProgress:0

in iew ,inst_from_rename size:0
in iew 
in iew sorted inst, get exe inst:0
in commit,getFromRename:0renamequeue:0in rename:
rename tick,before toIQ:0,toRob:0,storesInProgress:0
from IEW:dispatched:0 from commit:getfromrename:0
,dispatchedToSQ:0rename tick,after: toIQInProgress:0,toRobInProgress0storesInProgress:0

in iew ,inst_from_rename size:0
in iew 
in iew sorted inst, get exe inst:0
in commit,getFromRename:0renamequeue:0in rename:
rename tick,before toIQ:0,toRob:0,storesInProgress:0
from IEW:dispatched:0 from commit:getfromrename:0
,dispatchedToSQ:0rename tick,after: toIQInProgress:0,toRobInProgress0storesInProgress:0

in iew ,inst_from_rename size:0
in iew 
in iew sorted inst, get exe inst:0
in commit,getFromRename:0renamequeue:0in rename:
rename tick,before toIQ:0,toRob:0,storesInProgress:0
from IEW:dispatched:0 from commit:getfromrename:0
,dispatchedToSQ:0rename tick,after: toIQInProgress:0,toRobInProgress0storesInProgress:0

in iew ,inst_from_rename size:0
in iew 
in iew sorted inst, get exe inst:0
in commit,getFromRename:0renamequeue:0in rename:
rename tick,before toIQ:0,toRob:0,storesInProgress:0
from IEW:dispatched:0 from commit:getfromrename:0
,dispatchedToSQ:0rename tick,after: toIQInProgress:0,toRobInProgress0storesInProgress:0

in iew ,inst_from_rename size:0
in iew 
in iew sorted inst, get exe inst:0
in commit,getFromRename:0renamequeue:0in rename:
rename tick,before toIQ:0,toRob:0,storesInProgress:0
from IEW:dispatched:0 from commit:getfromrename:0
,dispatchedToSQ:0rename tick,after: toIQInProgress:0,toRobInProgress0storesInProgress:0

in iew ,inst_from_rename size:0
in iew 
in iew sorted inst, get exe inst:0
in commit,getFromRename:0renamequeue:0in rename:
rename tick,before toIQ:0,toRob:0,storesInProgress:0
from IEW:dispatched:0 from commit:getfromrename:0
,dispatchedToSQ:0rename tick,after: toIQInProgress:0,toRobInProgress0storesInProgress:0

[...]

in iew ,inst_from_rename size:0
in iew 
in iew sorted inst, get exe inst:0
commithead:: SN:51 val:0 T0 : 04233789 `  MOV_R_P : ld   r11d, DS:[t7 + 0xffffffffffbf65bc]'
commithead::src op[0] value is:0  arch reg:16 physical reg:16(flat:16)
commithead::src op[1] value is:4233796  arch reg:23 physical reg:76(flat:76)
commithead:: dest op[0] value is:0  arch reg:11 physical reg:78(flat:78)

i am can not commit head:T0 : 04233789 `  MOV_R_P : ld   r11d, DS:[t7 + 0xffffffffffbf65bc]'
in commit,getFromRename:0renamequeue:0in rename:
rename tick,before toIQ:0,toRob:0,storesInProgress:0
from IEW:dispatched:0 from commit:getfromrename:0
,dispatchedToSQ:0rename tick,after: toIQInProgress:0,toRobInProgress0storesInProgress:0

in iew ,inst_from_rename size:0
in iew 
in iew sorted inst, get exe inst:0
commithead:: SN:51 val:0 T0 : 04233789 `  MOV_R_P : ld   r11d, DS:[t7 + 0xffffffffffbf65bc]'
commithead::src op[0] value is:0  arch reg:16 physical reg:16(flat:16)
commithead::src op[1] value is:4233796  arch reg:23 physical reg:76(flat:76)
commithead:: dest op[0] value is:0  arch reg:11 physical reg:78(flat:78)

i am can not commit head:T0 : 04233789 `  MOV_R_P : ld   r11d, DS:[t7 + 0xffffffffffbf65bc]'
in commit,getFromRename:0renamequeue:0in rename:
rename tick,before toIQ:0,toRob:0,storesInProgress:0
from IEW:dispatched:0 from commit:getfromrename:0
,dispatchedToSQ:0rename tick,after: toIQInProgress:0,toRobInProgress0storesInProgress:0

in iew ,inst_from_rename size:0
in iew 
in iew sorted inst, get exe inst:0
commithead:: SN:51 val:0 T0 : 04233789 `  MOV_R_P : ld   r11d, DS:[t7 + 0xffffffffffbf65bc]'
commithead::src op[0] value is:0  arch reg:16 physical reg:16(flat:16)
commithead::src op[1] value is:4233796  arch reg:23 physical reg:76(flat:76)
commithead:: dest op[0] value is:0  arch reg:11 physical reg:78(flat:78)

i am can not commit head:T0 : 04233789 `  MOV_R_P : ld   r11d, DS:[t7 + 0xffffffffffbf65bc]'
in commit,getFromRename:0renamequeue:0in rename:
rename tick,before toIQ:0,toRob:0,storesInProgress:0
from IEW:dispatched:0 from commit:getfromrename:0
,dispatchedToSQ:0rename tick,after: toIQInProgress:0,toRobInProgress0storesInProgress:0

in iew ,inst_from_rename size:0
in iew 
in iew sorted inst, get exe inst:0
commithead:: SN:51 val:0 T0 : 04233789 `  MOV_R_P : ld   r11d, DS:[t7 + 0xffffffffffbf65bc]'
commithead::src op[0] value is:0  arch reg:16 physical reg:16(flat:16)
commithead::src op[1] value is:4233796  arch reg:23 physical reg:76(flat:76)
commithead:: dest op[0] value is:0  arch reg:11 physical reg:78(flat:78)

i am can not commit head:T0 : 04233789 `  MOV_R_P : ld   r11d, DS:[t7 + 0xffffffffffbf65bc]'
in commit,getFromRename:0renamequeue:0in rename:
rename tick,before toIQ:0,toRob:0,storesInProgress:0
from IEW:dispatched:0 from commit:getfromrename:0
,dispatchedToSQ:0rename tick,after: toIQInProgress:0,toRobInProgress0storesInProgress:0

in iew ,inst_from_rename size:0
in iew 
in iew sorted inst, get exe inst:0
commithead:: SN:51 val:0 T0 : 04233789 `  MOV_R_P : ld   r11d, DS:[t7 + 0xffffffffffbf65bc]'
commithead::src op[0] value is:0  arch reg:16 physical reg:16(flat:16)
commithead::src op[1] value is:4233796  arch reg:23 physical reg:76(flat:76)
commithead:: dest op[0] value is:0  arch reg:11 physical reg:78(flat:78)

i am can not commit head:T0 : 04233789 `  MOV_R_P : ld   r11d, DS:[t7 + 0xffffffffffbf65bc]'
in commit,getFromRename:0renamequeue:0in rename:
rename tick,before toIQ:0,toRob:0,storesInProgress:0
from IEW:dispatched:0 from commit:getfromrename:0
,dispatchedToSQ:0rename tick,after: toIQInProgress:0,toRobInProgress0storesInProgress:0

in iew ,inst_from_rename size:0
in iew 
in iew sorted inst, get exe inst:0
commithead:: SN:51 val:0 T0 : 04233789 `  MOV_R_P : ld   r11d, DS:[t7 + 0xffffffffffbf65bc]'
commithead::src op[0] value is:0  arch reg:16 physical reg:16(flat:16)
commithead::src op[1] value is:4233796  arch reg:23 physical reg:76(flat:76)
commithead:: dest op[0] value is:0  arch reg:11 physical reg:78(flat:78)

i am can not commit head:T0 : 04233789 `  MOV_R_P : ld   r11d, DS:[t7 + 0xffffffffffbf65bc]'
in commit,getFromRename:0renamequeue:0in rename:
rename tick,before toIQ:0,toRob:0,storesInProgress:0
from IEW:dispatched:0 from commit:getfromrename:0
,dispatchedToSQ:0rename tick,after: toIQInProgress:0,toRobInProgress0storesInProgress:0

in iew ,inst_from_rename size:0
in iew 
in iew sorted inst, get exe inst:0
commithead:: SN:51 val:0 T0 : 04233789 `  MOV_R_P : ld   r11d, DS:[t7 + 0xffffffffffbf65bc]'
commithead::src op[0] value is:0  arch reg:16 physical reg:16(flat:16)
commithead::src op[1] value is:4233796  arch reg:23 physical reg:76(flat:76)
commithead:: dest op[0] value is:0  arch reg:11 physical reg:78(flat:78)

i am can not commit head:T0 : 04233789 `  MOV_R_P : ld   r11d, DS:[t7 + 0xffffffffffbf65bc]'
in commit,getFromRename:0renamequeue:0in rename:
rename tick,before toIQ:0,toRob:0,storesInProgress:0
from IEW:dispatched:0 from commit:getfromrename:0
,dispatchedToSQ:0rename tick,after: toIQInProgress:0,toRobInProgress0storesInProgress:0

in iew ,inst_from_rename size:0
in iew 
in iew sorted inst, get exe inst:0
commithead:: SN:51 val:0 T0 : 04233789 `  MOV_R_P : ld   r11d, DS:[t7 + 0xffffffffffbf65bc]'
commithead::src op[0] value is:0  arch reg:16 physical reg:16(flat:16)
commithead::src op[1] value is:4233796  arch reg:23 physical reg:76(flat:76)
commithead:: dest op[0] value is:0  arch reg:11 physical reg:78(flat:78)

i am can not commit head:T0 : 04233789 `  MOV_R_P : ld   r11d, DS:[t7 + 0xffffffffffbf65bc]'
in commit,getFromRename:0renamequeue:0in rename:
rename tick,before toIQ:0,toRob:0,storesInProgress:0
from IEW:dispatched:0 from commit:getfromrename:0
,dispatchedToSQ:0rename tick,after: toIQInProgress:0,toRobInProgress0storesInProgress:0

in iew ,inst_from_rename size:0
in iew 
in iew sorted inst, get exe inst:0
commithead:: SN:51 val:0 T0 : 04233789 `  MOV_R_P : ld   r11d, DS:[t7 + 0xffffffffffbf65bc]'
commithead::src op[0] value is:0  arch reg:16 physical reg:16(flat:16)
commithead::src op[1] value is:4233796  arch reg:23 physical reg:76(flat:76)
commithead:: dest op[0] value is:0  arch reg:11 physical reg:78(flat:78)

i am can not commit head:T0 : 04233789 `  MOV_R_P : ld   r11d, DS:[t7 + 0xffffffffffbf65bc]'
in commit,getFromRename:0renamequeue:0in rename:
rename tick,before toIQ:0,toRob:0,storesInProgress:0
from IEW:dispatched:0 from commit:getfromrename:0
,dispatchedToSQ:0rename tick,after: toIQInProgress:0,toRobInProgress0storesInProgress:0

in iew ,inst_from_rename size:0
in iew 
in iew sorted inst, get exe inst:0
commithead:: SN:51 val:0 T0 : 04233789 `  MOV_R_P : ld   r11d, DS:[t7 + 0xffffffffffbf65bc]'
commithead::src op[0] value is:0  arch reg:16 physical reg:16(flat:16)
commithead::src op[1] value is:4233796  arch reg:23 physical reg:76(flat:76)
commithead:: dest op[0] value is:0  arch reg:11 physical reg:78(flat:78)

i am can not commit head:T0 : 04233789 `  MOV_R_P : ld   r11d, DS:[t7 + 0xffffffffffbf65bc]'
in commit,getFromRename:0renamequeue:0in rename:
rename tick,before toIQ:0,toRob:0,storesInProgress:0
from IEW:dispatched:0 from commit:getfromrename:0
,dispatchedToSQ:0rename tick,after: toIQInProgress:0,toRobInProgress0storesInProgress:0

in iew ,inst_from_rename size:0
in iew 
in iew sorted inst, get exe inst:0
commithead:: SN:51 val:0 T0 : 04233789 `  MOV_R_P : ld   r11d, DS:[t7 + 0xffffffffffbf65bc]'
commithead::src op[0] value is:0  arch reg:16 physical reg:16(flat:16)
commithead::src op[1] value is:4233796  arch reg:23 physical reg:76(flat:76)
commithead:: dest op[0] value is:0  arch reg:11 physical reg:78(flat:78)

i am can not commit head:T0 : 04233789 `  MOV_R_P : ld   r11d, DS:[t7 + 0xffffffffffbf65bc]'
in commit,getFromRename:0renamequeue:0in rename:
rename tick,before toIQ:0,toRob:0,storesInProgress:0
from IEW:dispatched:0 from commit:getfromrename:0
,dispatchedToSQ:0rename tick,after: toIQInProgress:0,toRobInProgress0storesInProgress:0

in iew ,inst_from_rename size:0
in iew 
in iew sorted inst, get exe inst:0
commithead:: SN:51 val:0 T0 : 04233789 `  MOV_R_P : ld   r11d, DS:[t7 + 0xffffffffffbf65bc]'
commithead::src op[0] value is:0  arch reg:16 physical reg:16(flat:16)
commithead::src op[1] value is:4233796  arch reg:23 physical reg:76(flat:76)
commithead:: dest op[0] value is:0  arch reg:11 physical reg:78(flat:78)

i am can not commit head:T0 : 04233789 `  MOV_R_P : ld   r11d, DS:[t7 + 0xffffffffffbf65bc]'
in commit,getFromRename:0renamequeue:0in rename:
rename tick,before toIQ:0,toRob:0,storesInProgress:0
from IEW:dispatched:0 from commit:getfromrename:0
,dispatchedToSQ:0rename tick,after: toIQInProgress:0,toRobInProgress0storesInProgress:0

in iew ,inst_from_rename size:0
in iew 
in iew sorted inst, get exe inst:0
commithead:: SN:51 val:0 T0 : 04233789 `  MOV_R_P : ld   r11d, DS:[t7 + 0xffffffffffbf65bc]'
commithead::src op[0] value is:0  arch reg:16 physical reg:16(flat:16)
commithead::src op[1] value is:4233796  arch reg:23 physical reg:76(flat:76)
commithead:: dest op[0] value is:0  arch reg:11 physical reg:78(flat:78)

i am can not commit head:T0 : 04233789 `  MOV_R_P : ld   r11d, DS:[t7 + 0xffffffffffbf65bc]'
in commit,getFromRename:0renamequeue:0in rename:
rename tick,before toIQ:0,toRob:0,storesInProgress:0
from IEW:dispatched:0 from commit:getfromrename:0
,dispatchedToSQ:0rename tick,after: toIQInProgress:0,toRobInProgress0storesInProgress:0

in iew ,inst_from_rename size:0
in iew 
in iew sorted inst, get exe inst:0
commithead:: SN:51 val:0 T0 : 04233789 `  MOV_R_P : ld   r11d, DS:[t7 + 0xffffffffffbf65bc]'
commithead::src op[0] value is:0  arch reg:16 physical reg:16(flat:16)
commithead::src op[1] value is:4233796  arch reg:23 physical reg:76(flat:76)
commithead:: dest op[0] value is:0  arch reg:11 physical reg:78(flat:78)

i am can not commit head:T0 : 04233789 `  MOV_R_P : ld   r11d, DS:[t7 + 0xffffffffffbf65bc]'
in commit,getFromRename:0renamequeue:0in rename:
rename tick,before toIQ:0,toRob:0,storesInProgress:0
from IEW:dispatched:0 from commit:getfromrename:0
,dispatchedToSQ:0rename tick,after: toIQInProgress:0,toRobInProgress0storesInProgress:0

in iew ,inst_from_rename size:0
in iew 
in iew sorted inst, get exe inst:0
commithead:: SN:51 val:0 T0 : 04233789 `  MOV_R_P : ld   r11d, DS:[t7 + 0xffffffffffbf65bc]'
commithead::src op[0] value is:0  arch reg:16 physical reg:16(flat:16)
commithead::src op[1] value is:4233796  arch reg:23 physical reg:76(flat:76)
commithead:: dest op[0] value is:0  arch reg:11 physical reg:78(flat:78)

i am can not commit head:T0 : 04233789 `  MOV_R_P : ld   r11d, DS:[t7 + 0xffffffffffbf65bc]'
in commit,getFromRename:0renamequeue:0in rename:
rename tick,before toIQ:0,toRob:0,storesInProgress:0
from IEW:dispatched:0 from commit:getfromrename:0
,dispatchedToSQ:0rename tick,after: toIQInProgress:0,toRobInProgress0storesInProgress:0

in iew ,inst_from_rename size:0
in iew 
in iew sorted inst, get exe inst:0
commithead:: SN:51 val:0 T0 : 04233789 `  MOV_R_P : ld   r11d, DS:[t7 + 0xffffffffffbf65bc]'
commithead::src op[0] value is:0  arch reg:16 physical reg:16(flat:16)
commithead::src op[1] value is:4233796  arch reg:23 physical reg:76(flat:76)
commithead:: dest op[0] value is:0  arch reg:11 physical reg:78(flat:78)

i am can not commit head:T0 : 04233789 `  MOV_R_P : ld   r11d, DS:[t7 + 0xffffffffffbf65bc]'
in commit,getFromRename:0renamequeue:0in rename:
rename tick,before toIQ:0,toRob:0,storesInProgress:0
from IEW:dispatched:0 from commit:getfromrename:0
,dispatchedToSQ:0rename tick,after: toIQInProgress:0,toRobInProgress0storesInProgress:0

in iew ,inst_from_rename size:0
in iew 
in iew sorted inst, get exe inst:0
commithead:: SN:51 val:0 T0 : 04233789 `  MOV_R_P : ld   r11d, DS:[t7 + 0xffffffffffbf65bc]'
commithead::src op[0] value is:0  arch reg:16 physical reg:16(flat:16)
commithead::src op[1] value is:4233796  arch reg:23 physical reg:76(flat:76)
commithead:: dest op[0] value is:0  arch reg:11 physical reg:78(flat:78)

i am can not commit head:T0 : 04233789 `  MOV_R_P : ld   r11d, DS:[t7 + 0xffffffffffbf65bc]'
in commit,getFromRename:0renamequeue:0in rename:
rename tick,before toIQ:0,toRob:0,storesInProgress:0
from IEW:dispatched:0 from commit:getfromrename:0
,dispatchedToSQ:0rename tick,after: toIQInProgress:0,toRobInProgress0storesInProgress:0

in iew ,inst_from_rename size:0
in iew 
in iew sorted inst, get exe inst:0
commithead:: SN:51 val:0 T0 : 04233789 `  MOV_R_P : ld   r11d, DS:[t7 + 0xffffffffffbf65bc]'
commithead::src op[0] value is:0  arch reg:16 physical reg:16(flat:16)
commithead::src op[1] value is:4233796  arch reg:23 physical reg:76(flat:76)
commithead:: dest op[0] value is:0  arch reg:11 physical reg:78(flat:78)

i am can not commit head:T0 : 04233789 `  MOV_R_P : ld   r11d, DS:[t7 + 0xffffffffffbf65bc]'
in commit,getFromRename:0renamequeue:0in rename:
rename tick,before toIQ:0,toRob:0,storesInProgress:0
from IEW:dispatched:0 from commit:getfromrename:0
,dispatchedToSQ:0rename tick,after: toIQInProgress:0,toRobInProgress0storesInProgress:0

in iew ,inst_from_rename size:0
in iew 
in iew sorted inst, get exe inst:0
commithead:: SN:51 val:0 T0 : 04233789 `  MOV_R_P : ld   r11d, DS:[t7 + 0xffffffffffbf65bc]'
commithead::src op[0] value is:0  arch reg:16 physical reg:16(flat:16)
commithead::src op[1] value is:4233796  arch reg:23 physical reg:76(flat:76)
commithead:: dest op[0] value is:0  arch reg:11 physical reg:78(flat:78)

i am can not commit head:T0 : 04233789 `  MOV_R_P : ld   r11d, DS:[t7 + 0xffffffffffbf65bc]'
in commit,getFromRename:0renamequeue:0in rename:
rename tick,before toIQ:0,toRob:0,storesInProgress:0
from IEW:dispatched:0 from commit:getfromrename:0
,dispatchedToSQ:0rename tick,after: toIQInProgress:0,toRobInProgress0storesInProgress:0

in iew ,inst_from_rename size:0
in iew 
in iew sorted inst, get exe inst:0
commithead:: SN:51 val:0 T0 : 04233789 `  MOV_R_P : ld   r11d, DS:[t7 + 0xffffffffffbf65bc]'
commithead::src op[0] value is:0  arch reg:16 physical reg:16(flat:16)
commithead::src op[1] value is:4233796  arch reg:23 physical reg:76(flat:76)
commithead:: dest op[0] value is:0  arch reg:11 physical reg:78(flat:78)

i am can not commit head:T0 : 04233789 `  MOV_R_P : ld   r11d, DS:[t7 + 0xffffffffffbf65bc]'
in commit,getFromRename:0renamequeue:0in rename:
rename tick,before toIQ:0,toRob:0,storesInProgress:0
from IEW:dispatched:0 from commit:getfromrename:0
,dispatchedToSQ:0rename tick,after: toIQInProgress:0,toRobInProgress0storesInProgress:0

in iew ,inst_from_rename size:0
in iew 
in iew sorted inst, get exe inst:0
commithead:: SN:51 val:0 T0 : 04233789 `  MOV_R_P : ld   r11d, DS:[t7 + 0xffffffffffbf65bc]'
commithead::src op[0] value is:0  arch reg:16 physical reg:16(flat:16)
commithead::src op[1] value is:4233796  arch reg:23 physical reg:76(flat:76)
commithead:: dest op[0] value is:0  arch reg:11 physical reg:78(flat:78)

i am can not commit head:T0 : 04233789 `  MOV_R_P : ld   r11d, DS:[t7 + 0xffffffffffbf65bc]'
in commit,getFromRename:0renamequeue:0in rename:
rename tick,before toIQ:0,toRob:0,storesInProgress:0
from IEW:dispatched:0 from commit:getfromrename:0
,dispatchedToSQ:0rename tick,after: toIQInProgress:0,toRobInProgress0storesInProgress:0

in iew ,inst_from_rename size:0
in iew 
in iew sorted inst, get exe inst:0
commithead:: SN:51 val:0 T0 : 04233789 `  MOV_R_P : ld   r11d, DS:[t7 + 0xffffffffffbf65bc]'
commithead::src op[0] value is:0  arch reg:16 physical reg:16(flat:16)
commithead::src op[1] value is:4233796  arch reg:23 physical reg:76(flat:76)
commithead:: dest op[0] value is:0  arch reg:11 physical reg:78(flat:78)

i am can not commit head:T0 : 04233789 `  MOV_R_P : ld   r11d, DS:[t7 + 0xffffffffffbf65bc]'
in commit,getFromRename:0renamequeue:0in rename:
rename tick,before toIQ:0,toRob:0,storesInProgress:0
from IEW:dispatched:0 from commit:getfromrename:0
,dispatchedToSQ:0rename tick,after: toIQInProgress:0,toRobInProgress0storesInProgress:0

in iew ,inst_from_rename size:0
in iew 
in iew sorted inst, get exe inst:0
commithead:: SN:51 val:0 T0 : 04233789 `  MOV_R_P : ld   r11d, DS:[t7 + 0xffffffffffbf65bc]'
commithead::src op[0] value is:0  arch reg:16 physical reg:16(flat:16)
commithead::src op[1] value is:4233796  arch reg:23 physical reg:76(flat:76)
commithead:: dest op[0] value is:0  arch reg:11 physical reg:78(flat:78)

i am can not commit head:T0 : 04233789 `  MOV_R_P : ld   r11d, DS:[t7 + 0xffffffffffbf65bc]'
in commit,getFromRename:0renamequeue:0in rename:
rename tick,before toIQ:0,toRob:0,storesInProgress:0
from IEW:dispatched:0 from commit:getfromrename:0
,dispatchedToSQ:0rename tick,after: toIQInProgress:0,toRobInProgress0storesInProgress:0

in iew ,inst_from_rename size:0
in iew 
in iew sorted inst, get exe inst:0
commithead:: SN:51 val:0 T0 : 04233789 `  MOV_R_P : ld   r11d, DS:[t7 + 0xffffffffffbf65bc]'
commithead::src op[0] value is:0  arch reg:16 physical reg:16(flat:16)
commithead::src op[1] value is:4233796  arch reg:23 physical reg:76(flat:76)
commithead:: dest op[0] value is:0  arch reg:11 physical reg:78(flat:78)

i am can not commit head:T0 : 04233789 `  MOV_R_P : ld   r11d, DS:[t7 + 0xffffffffffbf65bc]'
in commit,getFromRename:0renamequeue:0in rename:
rename tick,before toIQ:0,toRob:0,storesInProgress:0
from IEW:dispatched:0 from commit:getfromrename:0
,dispatchedToSQ:0rename tick,after: toIQInProgress:0,toRobInProgress0storesInProgress:0

in iew ,inst_from_rename size:0
in iew 
in iew sorted inst, get exe inst:0
commithead:: SN:51 val:0 T0 : 04233789 `  MOV_R_P : ld   r11d, DS:[t7 + 0xffffffffffbf65bc]'
commithead::src op[0] value is:0  arch reg:16 physical reg:16(flat:16)
commithead::src op[1] value is:4233796  arch reg:23 physical reg:76(flat:76)
commithead:: dest op[0] value is:0  arch reg:11 physical reg:78(flat:78)

i am can not commit head:T0 : 04233789 `  MOV_R_P : ld   r11d, DS:[t7 + 0xffffffffffbf65bc]'
in commit,getFromRename:0renamequeue:0in rename:
rename tick,before toIQ:0,toRob:0,storesInProgress:0
from IEW:dispatched:0 from commit:getfromrename:0
,dispatchedToSQ:0rename tick,after: toIQInProgress:0,toRobInProgress0storesInProgress:0

in iew ,inst_from_rename size:0
in iew 
in iew sorted inst, get exe inst:0
commithead:: SN:51 val:0 T0 : 04233789 `  MOV_R_P : ld   r11d, DS:[t7 + 0xffffffffffbf65bc]'
commithead::src op[0] value is:0  arch reg:16 physical reg:16(flat:16)
commithead::src op[1] value is:4233796  arch reg:23 physical reg:76(flat:76)
commithead:: dest op[0] value is:0  arch reg:11 physical reg:78(flat:78)

i am can not commit head:T0 : 04233789 `  MOV_R_P : ld   r11d, DS:[t7 + 0xffffffffffbf65bc]'
in commit,getFromRename:0renamequeue:0in rename:
rename tick,before toIQ:0,toRob:0,storesInProgress:0
from IEW:dispatched:0 from commit:getfromrename:0
,dispatchedToSQ:0rename tick,after: toIQInProgress:0,toRobInProgress0storesInProgress:0

in iew ,inst_from_rename size:0
in iew 
in iew sorted inst, get exe inst:0
commithead:: SN:51 val:0 T0 : 04233789 `  MOV_R_P : ld   r11d, DS:[t7 + 0xffffffffffbf65bc]'
commithead::src op[0] value is:0  arch reg:16 physical reg:16(flat:16)
commithead::src op[1] value is:4233796  arch reg:23 physical reg:76(flat:76)
commithead:: dest op[0] value is:0  arch reg:11 physical reg:78(flat:78)

i am can not commit head:T0 : 04233789 `  MOV_R_P : ld   r11d, DS:[t7 + 0xffffffffffbf65bc]'
in commit,getFromRename:0renamequeue:0in rename:
rename tick,before toIQ:0,toRob:0,storesInProgress:0
from IEW:dispatched:0 from commit:getfromrename:0
,dispatchedToSQ:0rename tick,after: toIQInProgress:0,toRobInProgress0storesInProgress:0

in iew ,inst_from_rename size:0
in iew 
in iew sorted inst, get exe inst:0
commithead:: SN:51 val:0 T0 : 04233789 `  MOV_R_P : ld   r11d, DS:[t7 + 0xffffffffffbf65bc]'
commithead::src op[0] value is:0  arch reg:16 physical reg:16(flat:16)
commithead::src op[1] value is:4233796  arch reg:23 physical reg:76(flat:76)
commithead:: dest op[0] value is:0  arch reg:11 physical reg:78(flat:78)

