gem5 Simulator System.  http://gem5.org
gem5 is copyrighted software; use the --copyright option for details.

gem5 compiled Mar 29 2019 19:33:24
gem5 started Mar 29 2019 19:34:58
gem5 executing on mprc-R730, pid 21544
command line: build/X86/gem5.opt --debug-flags=O3CPUAll --debug-start=30000 --debug-file=traceo3v3.out configs/example/se.py -c tests/test-progs/hello/bin/x86/linux/hello --cpu-type=DerivO3CPU --caches

Global frequency set at 1000000000000 ticks per second
**** REAL SIMULATION ****
in rename:
rename tick,before toIQ:0,toRob:0,storesInProgress:0
from IEW:dispatched:0 from commit:getfromrename:0
,dispatchedToSQ:0rename tick,after: toIQInProgress:0,toRobInProgress0storesInProgress:0

in iew ,inst_from_rename size:0
in iew 
in iew sorted inst, get exe inst:0
in commit,getFromRename:0renamequeue:0in rename:
rename tick,before toIQ:0,toRob:0,storesInProgress:0
from IEW:dispatched:0 from commit:getfromrename:0
,dispatchedToSQ:0rename tick,after: toIQInProgress:0,toRobInProgress0storesInProgress:0

in iew ,inst_from_rename size:0
in iew 
in iew sorted inst, get exe inst:0
in commit,getFromRename:0renamequeue:0in rename:
rename tick,before toIQ:0,toRob:0,storesInProgress:0
from IEW:dispatched:0 from commit:getfromrename:0
,dispatchedToSQ:0rename tick,after: toIQInProgress:0,toRobInProgress0storesInProgress:0

in iew ,inst_from_rename size:0
in iew 
in iew sorted inst, get exe inst:0
in commit,getFromRename:0renamequeue:0in rename:
rename tick,before toIQ:0,toRob:0,storesInProgress:0
from IEW:dispatched:0 from commit:getfromrename:0
,dispatchedToSQ:0rename tick,after: toIQInProgress:0,toRobInProgress0storesInProgress:0

in iew ,inst_from_rename size:0
in iew 
in iew sorted inst, get exe inst:0
in commit,getFromRename:0renamequeue:0in rename:
rename tick,before toIQ:0,toRob:0,storesInProgress:0
from IEW:dispatched:0 from commit:getfromrename:0
,dispatchedToSQ:0rename tick,after: toIQInProgress:0,toRobInProgress0storesInProgress:0

in iew ,inst_from_rename size:0
in iew 
in iew sorted inst, get exe inst:0
in commit,getFromRename:0renamequeue:0in rename:
rename tick,before toIQ:0,toRob:0,storesInProgress:0
from IEW:dispatched:0 from commit:getfromrename:0
,dispatchedToSQ:0rename tick,after: toIQInProgress:0,toRobInProgress0storesInProgress:0

in iew ,inst_from_rename size:0
in iew 
in iew sorted inst, get exe inst:0
in commit,getFromRename:0renamequeue:0in rename:
rename tick,before toIQ:0,toRob:0,storesInProgress:0
from IEW:dispatched:0 from commit:getfromrename:0
,dispatchedToSQ:0rename tick,after: toIQInProgress:0,toRobInProgress0storesInProgress:0

in iew ,inst_from_rename size:0
in iew 
in iew sorted inst, get exe inst:0
in commit,getFromRename:0renamequeue:0in rename:
rename tick,before toIQ:0,toRob:0,storesInProgress:0
from IEW:dispatched:0 from commit:getfromrename:0
,dispatchedToSQ:0rename tick,after: toIQInProgress:0,toRobInProgress0storesInProgress:0

in iew ,inst_from_rename size:0
in iew 
in iew sorted inst, get exe inst:0
in commit,getFromRename:0renamequeue:0in rename:
rename tick,before toIQ:0,toRob:0,storesInProgress:0
from IEW:dispatched:0 from commit:getfromrename:0
,dispatchedToSQ:0rename tick,after: toIQInProgress:0,toRobInProgress0storesInProgress:0

in iew ,inst_from_rename size:0
in iew 
in iew sorted inst, get exe inst:0
in commit,getFromRename:0renamequeue:0in rename:
rename tick,before toIQ:0,toRob:0,storesInProgress:0
from IEW:dispatched:0 from commit:getfromrename:0
,dispatchedToSQ:0rename tick,after: toIQInProgress:0,toRobInProgress0storesInProgress:0

in iew ,inst_from_rename size:0
in iew 
in iew sorted inst, get exe inst:0
in commit,getFromRename:0renamequeue:0in rename:
rename tick,before toIQ:0,toRob:0,storesInProgress:0
from IEW:dispatched:0 from commit:getfromrename:0
,dispatchedToSQ:0rename tick,after: toIQInProgress:0,toRobInProgress0storesInProgress:0

in iew ,inst_from_rename size:0
in iew 
in iew sorted inst, get exe inst:0
in commit,getFromRename:0renamequeue:0in rename:
rename tick,before toIQ:0,toRob:0,storesInProgress:0
from IEW:dispatched:0 from commit:getfromrename:0
,dispatchedToSQ:0rename tick,after: toIQInProgress:0,toRobInProgress0storesInProgress:0

in iew ,inst_from_rename size:0
in iew 
in iew sorted inst, get exe inst:0
in commit,getFromRename:0renamequeue:0in rename:
rename tick,before toIQ:0,toRob:0,storesInProgress:0
from IEW:dispatched:0 from commit:getfromrename:0
,dispatchedToSQ:0rename tick,after: toIQInProgress:0,toRobInProgress0storesInProgress:0

in iew ,inst_from_rename size:0
in iew 
in iew sorted inst, get exe inst:0
in commit,getFromRename:0renamequeue:0in rename:
rename tick,before toIQ:0,toRob:0,storesInProgress:0
from IEW:dispatched:0 from commit:getfromrename:0
,dispatchedToSQ:0rename tick,after: toIQInProgress:0,toRobInProgress0storesInProgress:0

in iew ,inst_from_rename size:0
in iew 
in iew sorted inst, get exe inst:0
in commit,getFromRename:0renamequeue:0in rename:
to iew,commit size:0 iew size:1noNeedExe:0 T0 : 04194704 `  XOR_R_R : xor   rbp, rbp, rbp'
to commit,commit size:1 iew size:1noNeedExe:0 T0 : 04194704 `  XOR_R_R : xor   rbp, rbp, rbp'
to iew,commit size:1 iew size:2noNeedExe:0 T0 : 04194707 `  MOV_R_R : mov   r9, r9, rdx'
to commit,commit size:2 iew size:2noNeedExe:0 T0 : 04194707 `  MOV_R_R : mov   r9, r9, rdx'
to iew,commit size:2 iew size:3noNeedExe:0 T0 : 04194710 `  POP_R : ldis   t1, SS:[rsp]'
to commit,commit size:3 iew size:3noNeedExe:0 T0 : 04194710 `  POP_R : ldis   t1, SS:[rsp]'
to iew,commit size:3 iew size:4noNeedExe:0 T0 : 04194710 `  POP_R : addi   rsp, rsp, 0x8'
to commit,commit size:4 iew size:4noNeedExe:0 T0 : 04194710 `  POP_R : addi   rsp, rsp, 0x8'
to iew,commit size:4 iew size:5noNeedExe:0 T0 : 04194710 `  POP_R : mov   rsi, rsi, t1'
to commit,commit size:5 iew size:5noNeedExe:0 T0 : 04194710 `  POP_R : mov   rsi, rsi, t1'
to iew,commit size:5 iew size:6noNeedExe:0 T0 : 04194711 `  MOV_R_R : mov   rdx, rdx, rsp'
to commit,commit size:6 iew size:6noNeedExe:0 T0 : 04194711 `  MOV_R_R : mov   rdx, rdx, rsp'
to iew,commit size:6 iew size:7noNeedExe:0 T0 : 04194714 `  AND_R_I : limm   t1, 0xfffffffffffffff0'
to commit,commit size:7 iew size:7noNeedExe:0 T0 : 04194714 `  AND_R_I : limm   t1, 0xfffffffffffffff0'
to iew,commit size:7 iew size:8noNeedExe:0 T0 : 04194714 `  AND_R_I : and   rsp, rsp, t1'
to commit,commit size:8 iew size:8noNeedExe:0 T0 : 04194714 `  AND_R_I : and   rsp, rsp, t1'
rename tick,before toIQ:8,toRob:8,storesInProgress:0
from IEW:dispatched:0 from commit:getfromrename:0
,dispatchedToSQ:0rename tick,after: toIQInProgress:8,toRobInProgress8storesInProgress:0

in iew ,inst_from_rename size:0
in iew 
in iew sorted inst, get exe inst:0
in commit,getFromRename:0renamequeue:0in rename:
to iew,commit size:0 iew size:1noNeedExe:0 T0 : 04194718 `  PUSH_R : stis   rax, SS:[rsp + 0xfffffffffffffff8]'
to commit,commit size:1 iew size:1noNeedExe:0 T0 : 04194718 `  PUSH_R : stis   rax, SS:[rsp + 0xfffffffffffffff8]'
to iew,commit size:1 iew size:2noNeedExe:0 T0 : 04194718 `  PUSH_R : subi   rsp, rsp, 0x8'
to commit,commit size:2 iew size:2noNeedExe:0 T0 : 04194718 `  PUSH_R : subi   rsp, rsp, 0x8'
to iew,commit size:2 iew size:3noNeedExe:0 T0 : 04194719 `  PUSH_R : stis   rsp, SS:[rsp + 0xfffffffffffffff8]'
to commit,commit size:3 iew size:3noNeedExe:0 T0 : 04194719 `  PUSH_R : stis   rsp, SS:[rsp + 0xfffffffffffffff8]'
to iew,commit size:3 iew size:4noNeedExe:0 T0 : 04194719 `  PUSH_R : subi   rsp, rsp, 0x8'
to commit,commit size:4 iew size:4noNeedExe:0 T0 : 04194719 `  PUSH_R : subi   rsp, rsp, 0x8'
to iew,commit size:4 iew size:5noNeedExe:0 T0 : 04194720 `  MOV_R_I : limm   r8, 0x40a060'
to commit,commit size:5 iew size:5noNeedExe:0 T0 : 04194720 `  MOV_R_I : limm   r8, 0x40a060'
to iew,commit size:5 iew size:6noNeedExe:0 T0 : 04194727 `  MOV_R_I : limm   rcx, 0x409ff0'
to commit,commit size:6 iew size:6noNeedExe:0 T0 : 04194727 `  MOV_R_I : limm   rcx, 0x409ff0'
to iew,commit size:6 iew size:7noNeedExe:0 T0 : 04194734 `  MOV_R_I : limm   rdi, 0x400274'
to commit,commit size:7 iew size:7noNeedExe:0 T0 : 04194734 `  MOV_R_I : limm   rdi, 0x400274'
to iew,commit size:7 iew size:8noNeedExe:0 T0 : 04194741 `  CALL_NEAR_I : limm   t1, 0x9846'
to commit,commit size:8 iew size:8noNeedExe:0 T0 : 04194741 `  CALL_NEAR_I : limm   t1, 0x9846'
rename tick,before toIQ:16,toRob:16,storesInProgress:2
from IEW:dispatched:0 from commit:getfromrename:0
,dispatchedToSQ:0rename tick,after: toIQInProgress:16,toRobInProgress16storesInProgress:2

in iew ,inst_from_rename size:0
in iew 
in iew sorted inst, get exe inst:0
in commit,getFromRename:8renamequeue:8in rename:
to iew,commit size:0 iew size:1noNeedExe:0 T0 : 04194741 `  CALL_NEAR_I : rdip   t7, %ctrl153, '
to commit,commit size:1 iew size:1noNeedExe:0 T0 : 04194741 `  CALL_NEAR_I : rdip   t7, %ctrl153, '
to iew,commit size:1 iew size:2noNeedExe:0 T0 : 04194741 `  CALL_NEAR_I : stis   t7, SS:[rsp + 0xfffffffffffffff8]'
to commit,commit size:2 iew size:2noNeedExe:0 T0 : 04194741 `  CALL_NEAR_I : stis   t7, SS:[rsp + 0xfffffffffffffff8]'
to iew,commit size:2 iew size:3noNeedExe:0 T0 : 04194741 `  CALL_NEAR_I : subi   rsp, rsp, 0x8'
to commit,commit size:3 iew size:3noNeedExe:0 T0 : 04194741 `  CALL_NEAR_I : subi   rsp, rsp, 0x8'
to iew,commit size:3 iew size:4noNeedExe:0 T0 : 04194741 `  CALL_NEAR_I : wrip   , t7, t1'
to commit,commit size:4 iew size:4noNeedExe:0 T0 : 04194741 `  CALL_NEAR_I : wrip   , t7, t1'
to iew,commit size:4 iew size:5noNeedExe:0 T0 : 04194746 `  HLT : halt   '
to commit,commit size:5 iew size:5noNeedExe:0 T0 : 04194746 `  HLT : halt   '
rename tick,before toIQ:21,toRob:21,storesInProgress:3
from IEW:dispatched:0 from commit:getfromrename:8
,dispatchedToSQ:0rename tick,after: toIQInProgress:21,toRobInProgress13storesInProgress:3

in iew ,inst_from_rename size:8
in iew 
0 T0 : 04194704 `  XOR_R_R : xor   rbp, rbp, rbp'
0 T0 : 04194707 `  MOV_R_R : mov   r9, r9, rdx'
0 T0 : 04194710 `  POP_R : ldis   t1, SS:[rsp]'
0 T0 : 04194710 `  POP_R : addi   rsp, rsp, 0x8'
0 T0 : 04194710 `  POP_R : mov   rsi, rsi, t1'
0 T0 : 04194711 `  MOV_R_R : mov   rdx, rdx, rsp'
0 T0 : 04194714 `  AND_R_I : limm   t1, 0xfffffffffffffff0'
0 T0 : 04194714 `  AND_R_I : and   rsp, rsp, t1'
in iew sorted inst, get exe inst:8
in commit,getFromRename:8renamequeue:8in rename:
rename tick,before toIQ:21,toRob:13,storesInProgress:3
from IEW:dispatched:8 from commit:getfromrename:8
,dispatchedToSQ:0rename tick,after: toIQInProgress:13,toRobInProgress5storesInProgress:3

in iew ,inst_from_rename size:8
in iew 
0 T0 : 04194718 `  PUSH_R : stis   rax, SS:[rsp + 0xfffffffffffffff8]'
0 T0 : 04194718 `  PUSH_R : subi   rsp, rsp, 0x8'
0 T0 : 04194719 `  PUSH_R : stis   rsp, SS:[rsp + 0xfffffffffffffff8]'
0 T0 : 04194719 `  PUSH_R : subi   rsp, rsp, 0x8'
0 T0 : 04194720 `  MOV_R_I : limm   r8, 0x40a060'
0 T0 : 04194727 `  MOV_R_I : limm   rcx, 0x409ff0'
0 T0 : 04194734 `  MOV_R_I : limm   rdi, 0x400274'
0 T0 : 04194741 `  CALL_NEAR_I : limm   t1, 0x9846'
in iew sorted inst, get exe inst:8
in commit,getFromRename:5renamequeue:5in rename:
rename tick,before toIQ:13,toRob:5,storesInProgress:3
from IEW:dispatched:8 from commit:getfromrename:5
,dispatchedToSQ:2rename tick,after: toIQInProgress:5,toRobInProgress0storesInProgress:1

in iew ,inst_from_rename size:5
in iew 
0 T0 : 04194741 `  CALL_NEAR_I : rdip   t7, %ctrl153, '
0 T0 : 04194741 `  CALL_NEAR_I : stis   t7, SS:[rsp + 0xfffffffffffffff8]'
0 T0 : 04194741 `  CALL_NEAR_I : subi   rsp, rsp, 0x8'
0 T0 : 04194741 `  CALL_NEAR_I : wrip   , t7, t1'
0 T0 : 04194746 `  HLT : halt   '
in iew sorted inst, get exe inst:5
in commit,getFromRename:0renamequeue:0in rename:
rename tick,before toIQ:5,toRob:0,storesInProgress:1
from IEW:dispatched:5 from commit:getfromrename:0
,dispatchedToSQ:1rename tick,after: toIQInProgress:0,toRobInProgress0storesInProgress:0

in iew ,inst_from_rename size:0
in iew 
in iew sorted inst, get exe inst:0
in commit,getFromRename:0renamequeue:0in rename:
rename tick,before toIQ:0,toRob:0,storesInProgress:0
from IEW:dispatched:0 from commit:getfromrename:0
,dispatchedToSQ:0rename tick,after: toIQInProgress:0,toRobInProgress0storesInProgress:0

in iew ,inst_from_rename size:0
in iew 
in iew sorted inst, get exe inst:0
in commit,getFromRename:0renamequeue:0in rename:
rename tick,before toIQ:0,toRob:0,storesInProgress:0
from IEW:dispatched:0 from commit:getfromrename:0
,dispatchedToSQ:0rename tick,after: toIQInProgress:0,toRobInProgress0storesInProgress:0

in iew ,inst_from_rename size:0
in iew 
in iew sorted inst, get exe inst:0
in commit,getFromRename:0renamequeue:0in rename:
rename tick,before toIQ:0,toRob:0,storesInProgress:0
from IEW:dispatched:0 from commit:getfromrename:0
,dispatchedToSQ:0rename tick,after: toIQInProgress:0,toRobInProgress0storesInProgress:0

in iew ,inst_from_rename size:0
in iew 
in iew sorted inst, get exe inst:0
in commit,getFromRename:0renamequeue:0in rename:
rename tick,before toIQ:0,toRob:0,storesInProgress:0
from IEW:dispatched:0 from commit:getfromrename:0
,dispatchedToSQ:0rename tick,after: toIQInProgress:0,toRobInProgress0storesInProgress:0

in iew ,inst_from_rename size:0
in iew 
in iew sorted inst, get exe inst:0
in commit,getFromRename:0renamequeue:0in rename:
rename tick,before toIQ:0,toRob:0,storesInProgress:0
from IEW:dispatched:0 from commit:getfromrename:0
,dispatchedToSQ:0rename tick,after: toIQInProgress:0,toRobInProgress0storesInProgress:0

in iew ,inst_from_rename size:0
in iew 
in iew sorted inst, get exe inst:0
in commit,getFromRename:0renamequeue:0in rename:
rename tick,before toIQ:0,toRob:0,storesInProgress:0
from IEW:dispatched:0 from commit:getfromrename:0
,dispatchedToSQ:0rename tick,after: toIQInProgress:0,toRobInProgress0storesInProgress:0

in iew ,inst_from_rename size:0
in iew 
in iew sorted inst, get exe inst:0
in commit,getFromRename:0renamequeue:0in rename:
rename tick,before toIQ:0,toRob:0,storesInProgress:0
from IEW:dispatched:0 from commit:getfromrename:0
,dispatchedToSQ:0rename tick,after: toIQInProgress:0,toRobInProgress0storesInProgress:0

in iew ,inst_from_rename size:0
in iew 
in iew sorted inst, get exe inst:0
in commit,getFromRename:0renamequeue:0in rename:
rename tick,before toIQ:0,toRob:0,storesInProgress:0
from IEW:dispatched:0 from commit:getfromrename:0
,dispatchedToSQ:0rename tick,after: toIQInProgress:0,toRobInProgress0storesInProgress:0

in iew ,inst_from_rename size:0
in iew 
in iew sorted inst, get exe inst:0
in commit,getFromRename:0renamequeue:0in rename:
rename tick,before toIQ:0,toRob:0,storesInProgress:0
from IEW:dispatched:0 from commit:getfromrename:0
,dispatchedToSQ:0rename tick,after: toIQInProgress:0,toRobInProgress0storesInProgress:0

in iew ,inst_from_rename size:0
in iew 
in iew sorted inst, get exe inst:0
in commit,getFromRename:0renamequeue:0in rename:
rename tick,before toIQ:0,toRob:0,storesInProgress:0
from IEW:dispatched:0 from commit:getfromrename:0
,dispatchedToSQ:0rename tick,after: toIQInProgress:0,toRobInProgress0storesInProgress:0

in iew ,inst_from_rename size:0
in iew 
in iew sorted inst, get exe inst:0
in commit,getFromRename:0renamequeue:0in rename:
rename tick,before toIQ:0,toRob:0,storesInProgress:0
from IEW:dispatched:0 from commit:getfromrename:0
,dispatchedToSQ:0rename tick,after: toIQInProgress:0,toRobInProgress0storesInProgress:0

in iew ,inst_from_rename size:0
in iew 
in iew sorted inst, get exe inst:0
in commit,getFromRename:0renamequeue:0in rename:
rename tick,before toIQ:0,toRob:0,storesInProgress:0
from IEW:dispatched:0 from commit:getfromrename:0
,dispatchedToSQ:0rename tick,after: toIQInProgress:0,toRobInProgress0storesInProgress:0

in iew ,inst_from_rename size:0
in iew 
in iew sorted inst, get exe inst:0
in commit,getFromRename:0renamequeue:0in rename:
rename tick,before toIQ:0,toRob:0,storesInProgress:0
from IEW:dispatched:0 from commit:getfromrename:0
,dispatchedToSQ:0rename tick,after: toIQInProgress:0,toRobInProgress0storesInProgress:0

in iew ,inst_from_rename size:0
in iew 
in iew sorted inst, get exe inst:0
in commit,getFromRename:0renamequeue:0in rename:
rename tick,before toIQ:0,toRob:0,storesInProgress:0
from IEW:dispatched:0 from commit:getfromrename:0
,dispatchedToSQ:0rename tick,after: toIQInProgress:0,toRobInProgress0storesInProgress:0

in iew ,inst_from_rename size:0
in iew 
in iew sorted inst, get exe inst:0
in commit,getFromRename:0renamequeue:0in rename:
rename tick,before toIQ:0,toRob:0,storesInProgress:0
from IEW:dispatched:0 from commit:getfromrename:0
,dispatchedToSQ:0rename tick,after: toIQInProgress:0,toRobInProgress0storesInProgress:0

in iew ,inst_from_rename size:0
in iew 
in iew sorted inst, get exe inst:0
in commit,getFromRename:0renamequeue:0in rename:
rename tick,before toIQ:0,toRob:0,storesInProgress:0
from IEW:dispatched:0 from commit:getfromrename:0
,dispatchedToSQ:0rename tick,after: toIQInProgress:0,toRobInProgress0storesInProgress:0

in iew ,inst_from_rename size:0
in iew 
in iew sorted inst, get exe inst:0
in commit,getFromRename:0renamequeue:0in rename:
rename tick,before toIQ:0,toRob:0,storesInProgress:0
from IEW:dispatched:0 from commit:getfromrename:0
,dispatchedToSQ:0rename tick,after: toIQInProgress:0,toRobInProgress0storesInProgress:0

in iew ,inst_from_rename size:0
in iew 
in iew sorted inst, get exe inst:0
in commit,getFromRename:0renamequeue:0in rename:
rename tick,before toIQ:0,toRob:0,storesInProgress:0
from IEW:dispatched:0 from commit:getfromrename:0
,dispatchedToSQ:0rename tick,after: toIQInProgress:0,toRobInProgress0storesInProgress:0

in iew ,inst_from_rename size:0
in iew 
in iew sorted inst, get exe inst:0
in commit,getFromRename:0renamequeue:0in rename:
rename tick,before toIQ:0,toRob:0,storesInProgress:0
from IEW:dispatched:0 from commit:getfromrename:0
,dispatchedToSQ:0rename tick,after: toIQInProgress:0,toRobInProgress0storesInProgress:0

in iew ,inst_from_rename size:0
in iew 
in iew sorted inst, get exe inst:0
in commit,getFromRename:0renamequeue:0in rename:
rename tick,before toIQ:0,toRob:0,storesInProgress:0
from IEW:dispatched:0 from commit:getfromrename:0
,dispatchedToSQ:0rename tick,after: toIQInProgress:0,toRobInProgress0storesInProgress:0

in iew ,inst_from_rename size:0
in iew 
in iew sorted inst, get exe inst:0
in commit,getFromRename:0renamequeue:0in rename:
rename tick,before toIQ:0,toRob:0,storesInProgress:0
from IEW:dispatched:0 from commit:getfromrename:0
,dispatchedToSQ:0rename tick,after: toIQInProgress:0,toRobInProgress0storesInProgress:0

in iew ,inst_from_rename size:0
in iew 
in iew sorted inst, get exe inst:0
in commit,getFromRename:0renamequeue:0in rename:
rename tick,before toIQ:0,toRob:0,storesInProgress:0
from IEW:dispatched:0 from commit:getfromrename:0
,dispatchedToSQ:0rename tick,after: toIQInProgress:0,toRobInProgress0storesInProgress:0

in iew ,inst_from_rename size:0
in iew 
in iew sorted inst, get exe inst:0
in commit,getFromRename:0renamequeue:0in rename:
rename tick,before toIQ:0,toRob:0,storesInProgress:0
from IEW:dispatched:0 from commit:getfromrename:0
,dispatchedToSQ:0rename tick,after: toIQInProgress:0,toRobInProgress0storesInProgress:0

in iew ,inst_from_rename size:0
in iew 
in iew sorted inst, get exe inst:0
in commit,getFromRename:0renamequeue:0in rename:
rename tick,before toIQ:0,toRob:0,storesInProgress:0
from IEW:dispatched:0 from commit:getfromrename:0
,dispatchedToSQ:0rename tick,after: toIQInProgress:0,toRobInProgress0storesInProgress:0

in iew ,inst_from_rename size:0
in iew 
in iew sorted inst, get exe inst:0
in commit,getFromRename:0renamequeue:0in rename:
rename tick,before toIQ:0,toRob:0,storesInProgress:0
from IEW:dispatched:0 from commit:getfromrename:0
,dispatchedToSQ:0rename tick,after: toIQInProgress:0,toRobInProgress0storesInProgress:0

in iew ,inst_from_rename size:0
in iew 
in iew sorted inst, get exe inst:0
in commit,getFromRename:0renamequeue:0in rename:
rename tick,before toIQ:0,toRob:0,storesInProgress:0
from IEW:dispatched:0 from commit:getfromrename:0
,dispatchedToSQ:0rename tick,after: toIQInProgress:0,toRobInProgress0storesInProgress:0

in iew ,inst_from_rename size:0
in iew 
in iew sorted inst, get exe inst:0
in commit,getFromRename:0renamequeue:0in rename:
rename tick,before toIQ:0,toRob:0,storesInProgress:0
from IEW:dispatched:0 from commit:getfromrename:0
,dispatchedToSQ:0rename tick,after: toIQInProgress:0,toRobInProgress0storesInProgress:0

in iew ,inst_from_rename size:0
in iew 
in iew sorted inst, get exe inst:0
in commit,getFromRename:0renamequeue:0in rename:
rename tick,before toIQ:0,toRob:0,storesInProgress:0
from IEW:dispatched:0 from commit:getfromrename:0
,dispatchedToSQ:0rename tick,after: toIQInProgress:0,toRobInProgress0storesInProgress:0

in iew ,inst_from_rename size:0
in iew 
in iew sorted inst, get exe inst:0
in commit,getFromRename:0renamequeue:0in rename:
rename tick,before toIQ:0,toRob:0,storesInProgress:0
from IEW:dispatched:0 from commit:getfromrename:0
,dispatchedToSQ:0rename tick,after: toIQInProgress:0,toRobInProgress0storesInProgress:0

in iew ,inst_from_rename size:0
in iew 
in iew sorted inst, get exe inst:0
in commit,getFromRename:0renamequeue:0in rename:
rename tick,before toIQ:0,toRob:0,storesInProgress:0
from IEW:dispatched:0 from commit:getfromrename:0
,dispatchedToSQ:0rename tick,after: toIQInProgress:0,toRobInProgress0storesInProgress:0

in iew ,inst_from_rename size:0
in iew 
in iew sorted inst, get exe inst:0
in commit,getFromRename:0renamequeue:0in rename:
rename tick,before toIQ:0,toRob:0,storesInProgress:0
from IEW:dispatched:0 from commit:getfromrename:0
,dispatchedToSQ:0rename tick,after: toIQInProgress:0,toRobInProgress0storesInProgress:0

in iew ,inst_from_rename size:0
in iew 
in iew sorted inst, get exe inst:0
in commit,getFromRename:0renamequeue:0in rename:
rename tick,before toIQ:0,toRob:0,storesInProgress:0
from IEW:dispatched:0 from commit:getfromrename:0
,dispatchedToSQ:0rename tick,after: toIQInProgress:0,toRobInProgress0storesInProgress:0

in iew ,inst_from_rename size:0
in iew 
in iew sorted inst, get exe inst:0
in commit,getFromRename:0renamequeue:0in rename:
rename tick,before toIQ:0,toRob:0,storesInProgress:0
from IEW:dispatched:0 from commit:getfromrename:0
,dispatchedToSQ:0rename tick,after: toIQInProgress:0,toRobInProgress0storesInProgress:0

in iew ,inst_from_rename size:0
in iew 
in iew sorted inst, get exe inst:0
in commit,getFromRename:0renamequeue:0in rename:
to commit,commit size:1 iew size:0noNeedExe:1 T0 : 04233728 `  PUSH_R : stis   r15, SS:[rsp + 0xfffffffffffffff8]'
to commit,commit size:2 iew size:0noNeedExe:1 T0 : 04233728 `  PUSH_R : subi   rsp, rsp, 0x8'
to commit,commit size:3 iew size:0noNeedExe:1 T0 : 04233730 `  MOVSXD_R_R : sexti   rax, rsi, 0x1f'
to commit,commit size:4 iew size:0noNeedExe:1 T0 : 04233733 `  MOV_R_R : mov   r15, r15, r9'
to iew,commit size:4 iew size:1noNeedExe:0 T0 : 04233736 `  PUSH_R : stis   r14, SS:[rsp + 0xfffffffffffffff8]'
to commit,commit size:5 iew size:1noNeedExe:0 T0 : 04233736 `  PUSH_R : stis   r14, SS:[rsp + 0xfffffffffffffff8]'
to iew,commit size:5 iew size:2noNeedExe:0 T0 : 04233736 `  PUSH_R : subi   rsp, rsp, 0x8'
to commit,commit size:6 iew size:2noNeedExe:0 T0 : 04233736 `  PUSH_R : subi   rsp, rsp, 0x8'
to iew,commit size:6 iew size:3noNeedExe:0 T0 : 04233738 `  MOV_R_R : mov   r14, r14, rdx'
to commit,commit size:7 iew size:3noNeedExe:0 T0 : 04233738 `  MOV_R_R : mov   r14, r14, rdx'
to iew,commit size:7 iew size:4noNeedExe:0 T0 : 04233741 `  PUSH_R : stis   r13, SS:[rsp + 0xfffffffffffffff8]'
to commit,commit size:8 iew size:4noNeedExe:0 T0 : 04233741 `  PUSH_R : stis   r13, SS:[rsp + 0xfffffffffffffff8]'
rename tick,before toIQ:4,toRob:8,storesInProgress:2
from IEW:dispatched:0 from commit:getfromrename:0
,dispatchedToSQ:0rename tick,after: toIQInProgress:4,toRobInProgress8storesInProgress:2

in iew ,inst_from_rename size:0
in iew 
in iew sorted inst, get exe inst:0
in commit,getFromRename:0renamequeue:0in rename:
to commit,commit size:1 iew size:0noNeedExe:1 T0 : 04233741 `  PUSH_R : subi   rsp, rsp, 0x8'
to commit,commit size:2 iew size:0noNeedExe:1 T0 : 04233743 `  MOV_R_R : mov   r13d, r13d, esi'
to commit,commit size:3 iew size:0noNeedExe:1 T0 : 04233746 `  PUSH_R : stis   r12, SS:[rsp + 0xfffffffffffffff8]'
to commit,commit size:4 iew size:0noNeedExe:1 T0 : 04233746 `  PUSH_R : subi   rsp, rsp, 0x8'
to iew,commit size:4 iew size:1noNeedExe:0 T0 : 04233748 `  PUSH_R : stis   rbp, SS:[rsp + 0xfffffffffffffff8]'
to commit,commit size:5 iew size:1noNeedExe:0 T0 : 04233748 `  PUSH_R : stis   rbp, SS:[rsp + 0xfffffffffffffff8]'
to iew,commit size:5 iew size:2noNeedExe:0 T0 : 04233748 `  PUSH_R : subi   rsp, rsp, 0x8'
to commit,commit size:6 iew size:2noNeedExe:0 T0 : 04233748 `  PUSH_R : subi   rsp, rsp, 0x8'
to iew,commit size:6 iew size:3noNeedExe:0 T0 : 04233749 `  PUSH_R : stis   rbx, SS:[rsp + 0xfffffffffffffff8]'
to commit,commit size:7 iew size:3noNeedExe:0 T0 : 04233749 `  PUSH_R : stis   rbx, SS:[rsp + 0xfffffffffffffff8]'
to iew,commit size:7 iew size:4noNeedExe:0 T0 : 04233749 `  PUSH_R : subi   rsp, rsp, 0x8'
to commit,commit size:8 iew size:4noNeedExe:0 T0 : 04233749 `  PUSH_R : subi   rsp, rsp, 0x8'
rename tick,before toIQ:8,toRob:16,storesInProgress:4
from IEW:dispatched:0 from commit:getfromrename:0
,dispatchedToSQ:0rename tick,after: toIQInProgress:8,toRobInProgress16storesInProgress:4

in iew ,inst_from_rename size:0
in iew 
in iew sorted inst, get exe inst:0
in commit,getFromRename:8renamequeue:8in rename:
0 T0 : 04233728 `  PUSH_R : stis   r15, SS:[rsp + 0xfffffffffffffff8]'
to commit,commit size:1 iew size:1noNeedExe:1 T0 : 04233750 `  SUB_R_I : limm   t1, 0x1f8'
to commit,commit size:2 iew size:1noNeedExe:1 T0 : 04233750 `  SUB_R_I : sub   rsp, rsp, t1'
to commit,commit size:3 iew size:1noNeedExe:1 T0 : 04233757 `  MOV_M_R : st   rdi, DS:[rsp + 0x18]'
to commit,commit size:4 iew size:1noNeedExe:1 T0 : 04233762 `  LEA_R_M : lea   rdi, DS:[8*rax + rdx + 0x8]'
to iew,commit size:4 iew size:2noNeedExe:0 T0 : 04233767 `  MOV_R_I : limm   eax, 0'
to commit,commit size:5 iew size:2noNeedExe:0 T0 : 04233767 `  MOV_R_I : limm   eax, 0'
to iew,commit size:5 iew size:3noNeedExe:0 T0 : 04233772 `  XOR_R_R : xor   edx, edx, edx'
to commit,commit size:6 iew size:3noNeedExe:0 T0 : 04233772 `  XOR_R_R : xor   edx, edx, edx'
to iew,commit size:6 iew size:4noNeedExe:0 T0 : 04233774 `  TEST_R_R : and   t0, rax, rax'
to commit,commit size:7 iew size:4noNeedExe:0 T0 : 04233774 `  TEST_R_R : and   t0, rax, rax'
to iew,commit size:7 iew size:5noNeedExe:0 T0 : 04233777 `  MOV_M_R : st   rcx, DS:[rsp + 0x10]'
to commit,commit size:8 iew size:5noNeedExe:0 T0 : 04233777 `  MOV_M_R : st   rcx, DS:[rsp + 0x10]'
rename tick,before toIQ:13,toRob:24,storesInProgress:6
from IEW:dispatched:0 from commit:getfromrename:8
,dispatchedToSQ:0rename tick,after: toIQInProgress:13,toRobInProgress16storesInProgress:6

in iew ,inst_from_rename size:4
in iew 
0 T0 : 04233736 `  PUSH_R : stis   r14, SS:[rsp + 0xfffffffffffffff8]'
0 T0 : 04233736 `  PUSH_R : subi   rsp, rsp, 0x8'
0 T0 : 04233738 `  MOV_R_R : mov   r14, r14, rdx'
0 T0 : 04233741 `  PUSH_R : stis   r13, SS:[rsp + 0xfffffffffffffff8]'
in iew sorted inst, get exe inst:4
in commit,getFromRename:8renamequeue:8in rename:
to commit,commit size:1 iew size:0noNeedExe:1 T0 : 04233782 `  MOV_M_R : st   r8, DS:[rsp + 0x8]'
to commit,commit size:2 iew size:0noNeedExe:1 T0 : 04233787 `  JZ_I : rdip   t1, %ctrl153, '
to commit,commit size:3 iew size:0noNeedExe:1 T0 : 04233787 `  JZ_I : limm   t2, 0x12'
to commit,commit size:4 iew size:0noNeedExe:1 T0 : 04233787 `  JZ_I : wrip   , t1, t2'
rename tick,before toIQ:13,toRob:20,storesInProgress:6
from IEW:dispatched:4 from commit:getfromrename:8
,dispatchedToSQ:2rename tick,after: toIQInProgress:9,toRobInProgress12storesInProgress:4

in iew ,inst_from_rename size:4
in iew 
0 T0 : 04233748 `  PUSH_R : stis   rbp, SS:[rsp + 0xfffffffffffffff8]'
0 T0 : 04233748 `  PUSH_R : subi   rsp, rsp, 0x8'
0 T0 : 04233749 `  PUSH_R : stis   rbx, SS:[rsp + 0xfffffffffffffff8]'
0 T0 : 04233749 `  PUSH_R : subi   rsp, rsp, 0x8'
in iew sorted inst, get exe inst:4
in commit,getFromRename:8renamequeue:8in rename:
rename tick,before toIQ:9,toRob:12,storesInProgress:4
from IEW:dispatched:4 from commit:getfromrename:8
,dispatchedToSQ:2rename tick,after: toIQInProgress:5,toRobInProgress4storesInProgress:2

in iew ,inst_from_rename size:5
in iew 
0 T0 : 04233728 `  PUSH_R : stis   r15, SS:[rsp + 0xfffffffffffffff8]'
0 T0 : 04233767 `  MOV_R_I : limm   eax, 0'
0 T0 : 04233772 `  XOR_R_R : xor   edx, edx, edx'
0 T0 : 04233774 `  TEST_R_R : and   t0, rax, rax'
0 T0 : 04233777 `  MOV_M_R : st   rcx, DS:[rsp + 0x10]'
in iew sorted inst, get exe inst:5
in commit,getFromRename:4renamequeue:4in rename:
rename tick,before toIQ:5,toRob:4,storesInProgress:2
from IEW:dispatched:5 from commit:getfromrename:4
,dispatchedToSQ:2rename tick,after: toIQInProgress:0,toRobInProgress0storesInProgress:0

in iew ,inst_from_rename size:0
in iew 
in iew sorted inst, get exe inst:0
in commit,getFromRename:0renamequeue:0in rename:
rename tick,before toIQ:0,toRob:0,storesInProgress:0
from IEW:dispatched:0 from commit:getfromrename:0
,dispatchedToSQ:0rename tick,after: toIQInProgress:0,toRobInProgress0storesInProgress:0

in iew ,inst_from_rename size:0
in iew 
in iew sorted inst, get exe inst:0
in commit,getFromRename:0renamequeue:0in rename:
rename tick,before toIQ:0,toRob:0,storesInProgress:0
from IEW:dispatched:0 from commit:getfromrename:0
,dispatchedToSQ:0rename tick,after: toIQInProgress:0,toRobInProgress0storesInProgress:0

in iew ,inst_from_rename size:0
in iew 
in iew sorted inst, get exe inst:0
in commit,getFromRename:0renamequeue:0in rename:
rename tick,before toIQ:0,toRob:0,storesInProgress:0
from IEW:dispatched:0 from commit:getfromrename:0
,dispatchedToSQ:0rename tick,after: toIQInProgress:0,toRobInProgress0storesInProgress:0

in iew ,inst_from_rename size:0
in iew 
in iew sorted inst, get exe inst:0
in commit,getFromRename:0renamequeue:0in rename:
0 T0 : 04233728 `  PUSH_R : subi   rsp, rsp, 0x8'
rename tick,before toIQ:1,toRob:0,storesInProgress:0
from IEW:dispatched:0 from commit:getfromrename:0
,dispatchedToSQ:0rename tick,after: toIQInProgress:1,toRobInProgress0storesInProgress:0

in iew ,inst_from_rename size:0
in iew 
in iew sorted inst, get exe inst:0
in commit,getFromRename:0renamequeue:0in rename:
rename tick,before toIQ:1,toRob:0,storesInProgress:0
from IEW:dispatched:0 from commit:getfromrename:0
,dispatchedToSQ:0rename tick,after: toIQInProgress:1,toRobInProgress0storesInProgress:0

in iew ,inst_from_rename size:0
in iew 
in iew sorted inst, get exe inst:0
in commit,getFromRename:0renamequeue:0in rename:
rename tick,before toIQ:1,toRob:0,storesInProgress:0
from IEW:dispatched:0 from commit:getfromrename:0
,dispatchedToSQ:0rename tick,after: toIQInProgress:1,toRobInProgress0storesInProgress:0

in iew ,inst_from_rename size:1
in iew 
0 T0 : 04233728 `  PUSH_R : subi   rsp, rsp, 0x8'
in iew sorted inst, get exe inst:1
in commit,getFromRename:0renamequeue:0in rename:
rename tick,before toIQ:1,toRob:0,storesInProgress:0
from IEW:dispatched:1 from commit:getfromrename:0
,dispatchedToSQ:0rename tick,after: toIQInProgress:0,toRobInProgress0storesInProgress:0

in iew ,inst_from_rename size:0
in iew 
in iew sorted inst, get exe inst:0
in commit,getFromRename:0renamequeue:0in rename:
rename tick,before toIQ:0,toRob:0,storesInProgress:0
from IEW:dispatched:0 from commit:getfromrename:0
,dispatchedToSQ:0rename tick,after: toIQInProgress:0,toRobInProgress0storesInProgress:0

in iew ,inst_from_rename size:0
in iew 
in iew sorted inst, get exe inst:0
in commit,getFromRename:0renamequeue:0in rename:
rename tick,before toIQ:0,toRob:0,storesInProgress:0
from IEW:dispatched:0 from commit:getfromrename:0
,dispatchedToSQ:0rename tick,after: toIQInProgress:0,toRobInProgress0storesInProgress:0

in iew ,inst_from_rename size:0
in iew 
in iew sorted inst, get exe inst:0
in commit,getFromRename:0renamequeue:0in rename:
0 T0 : 04233730 `  MOVSXD_R_R : sexti   rax, rsi, 0x1f'
rename tick,before toIQ:1,toRob:0,storesInProgress:0
from IEW:dispatched:0 from commit:getfromrename:0
,dispatchedToSQ:0rename tick,after: toIQInProgress:1,toRobInProgress0storesInProgress:0

in iew ,inst_from_rename size:0
in iew 
in iew sorted inst, get exe inst:0
in commit,getFromRename:0renamequeue:0in rename:
rename tick,before toIQ:1,toRob:0,storesInProgress:0
from IEW:dispatched:0 from commit:getfromrename:0
,dispatchedToSQ:0rename tick,after: toIQInProgress:1,toRobInProgress0storesInProgress:0

in iew ,inst_from_rename size:0
in iew 
in iew sorted inst, get exe inst:0
in commit,getFromRename:0renamequeue:0in rename:
rename tick,before toIQ:1,toRob:0,storesInProgress:0
from IEW:dispatched:0 from commit:getfromrename:0
,dispatchedToSQ:0rename tick,after: toIQInProgress:1,toRobInProgress0storesInProgress:0

in iew ,inst_from_rename size:1
in iew 
0 T0 : 04233730 `  MOVSXD_R_R : sexti   rax, rsi, 0x1f'
in iew sorted inst, get exe inst:1
in commit,getFromRename:0renamequeue:0in rename:
rename tick,before toIQ:1,toRob:0,storesInProgress:0
from IEW:dispatched:1 from commit:getfromrename:0
,dispatchedToSQ:0rename tick,after: toIQInProgress:0,toRobInProgress0storesInProgress:0

in iew ,inst_from_rename size:0
in iew 
in iew sorted inst, get exe inst:0
in commit,getFromRename:0renamequeue:0in rename:
rename tick,before toIQ:0,toRob:0,storesInProgress:0
from IEW:dispatched:0 from commit:getfromrename:0
,dispatchedToSQ:0rename tick,after: toIQInProgress:0,toRobInProgress0storesInProgress:0

in iew ,inst_from_rename size:0
in iew 
in iew sorted inst, get exe inst:0
in commit,getFromRename:0renamequeue:0in rename:
rename tick,before toIQ:0,toRob:0,storesInProgress:0
from IEW:dispatched:0 from commit:getfromrename:0
,dispatchedToSQ:0rename tick,after: toIQInProgress:0,toRobInProgress0storesInProgress:0

in iew ,inst_from_rename size:0
in iew 
in iew sorted inst, get exe inst:0
in commit,getFromRename:0renamequeue:0in rename:
0 T0 : 04233733 `  MOV_R_R : mov   r15, r15, r9'
rename tick,before toIQ:1,toRob:0,storesInProgress:0
from IEW:dispatched:0 from commit:getfromrename:0
,dispatchedToSQ:0rename tick,after: toIQInProgress:1,toRobInProgress0storesInProgress:0

in iew ,inst_from_rename size:0
in iew 
in iew sorted inst, get exe inst:0
in commit,getFromRename:0renamequeue:0in rename:
rename tick,before toIQ:1,toRob:0,storesInProgress:0
from IEW:dispatched:0 from commit:getfromrename:0
,dispatchedToSQ:0rename tick,after: toIQInProgress:1,toRobInProgress0storesInProgress:0

in iew ,inst_from_rename size:0
in iew 
in iew sorted inst, get exe inst:0
in commit,getFromRename:0renamequeue:0in rename:
rename tick,before toIQ:1,toRob:0,storesInProgress:0
from IEW:dispatched:0 from commit:getfromrename:0
,dispatchedToSQ:0rename tick,after: toIQInProgress:1,toRobInProgress0storesInProgress:0

in iew ,inst_from_rename size:1
in iew 
0 T0 : 04233733 `  MOV_R_R : mov   r15, r15, r9'
in iew sorted inst, get exe inst:1
in commit,getFromRename:0renamequeue:0in rename:
rename tick,before toIQ:1,toRob:0,storesInProgress:0
from IEW:dispatched:1 from commit:getfromrename:0
,dispatchedToSQ:0rename tick,after: toIQInProgress:0,toRobInProgress0storesInProgress:0

in iew ,inst_from_rename size:0
in iew 
in iew sorted inst, get exe inst:0
in commit,getFromRename:0renamequeue:0in rename:
rename tick,before toIQ:0,toRob:0,storesInProgress:0
from IEW:dispatched:0 from commit:getfromrename:0
,dispatchedToSQ:0rename tick,after: toIQInProgress:0,toRobInProgress0storesInProgress:0

in iew ,inst_from_rename size:0
in iew 
in iew sorted inst, get exe inst:0
in commit,getFromRename:0renamequeue:0in rename:
rename tick,before toIQ:0,toRob:0,storesInProgress:0
from IEW:dispatched:0 from commit:getfromrename:0
,dispatchedToSQ:0rename tick,after: toIQInProgress:0,toRobInProgress0storesInProgress:0

in iew ,inst_from_rename size:0
in iew 
in iew sorted inst, get exe inst:0
in commit,getFromRename:0renamequeue:0in rename:
0 T0 : 04233741 `  PUSH_R : subi   rsp, rsp, 0x8'
rename tick,before toIQ:1,toRob:0,storesInProgress:0
from IEW:dispatched:0 from commit:getfromrename:0
,dispatchedToSQ:0rename tick,after: toIQInProgress:1,toRobInProgress0storesInProgress:0

in iew ,inst_from_rename size:0
in iew 
in iew sorted inst, get exe inst:0
in commit,getFromRename:0renamequeue:0in rename:
rename tick,before toIQ:1,toRob:0,storesInProgress:0
from IEW:dispatched:0 from commit:getfromrename:0
,dispatchedToSQ:0rename tick,after: toIQInProgress:1,toRobInProgress0storesInProgress:0

in iew ,inst_from_rename size:0
in iew 
in iew sorted inst, get exe inst:0
in commit,getFromRename:0renamequeue:0in rename:
rename tick,before toIQ:1,toRob:0,storesInProgress:0
from IEW:dispatched:0 from commit:getfromrename:0
,dispatchedToSQ:0rename tick,after: toIQInProgress:1,toRobInProgress0storesInProgress:0

in iew ,inst_from_rename size:1
in iew 
0 T0 : 04233741 `  PUSH_R : subi   rsp, rsp, 0x8'
in iew sorted inst, get exe inst:1
in commit,getFromRename:0renamequeue:0in rename:
rename tick,before toIQ:1,toRob:0,storesInProgress:0
from IEW:dispatched:1 from commit:getfromrename:0
,dispatchedToSQ:0rename tick,after: toIQInProgress:0,toRobInProgress0storesInProgress:0

in iew ,inst_from_rename size:0
in iew 
in iew sorted inst, get exe inst:0
in commit,getFromRename:0renamequeue:0in rename:
rename tick,before toIQ:0,toRob:0,storesInProgress:0
from IEW:dispatched:0 from commit:getfromrename:0
,dispatchedToSQ:0rename tick,after: toIQInProgress:0,toRobInProgress0storesInProgress:0

in iew ,inst_from_rename size:0
in iew 
in iew sorted inst, get exe inst:0
in commit,getFromRename:0renamequeue:0in rename:
rename tick,before toIQ:0,toRob:0,storesInProgress:0
from IEW:dispatched:0 from commit:getfromrename:0
,dispatchedToSQ:0rename tick,after: toIQInProgress:0,toRobInProgress0storesInProgress:0

in iew ,inst_from_rename size:0
in iew 
in iew sorted inst, get exe inst:0
in commit,getFromRename:0renamequeue:0in rename:
0 T0 : 04233743 `  MOV_R_R : mov   r13d, r13d, esi'
rename tick,before toIQ:1,toRob:0,storesInProgress:0
from IEW:dispatched:0 from commit:getfromrename:0
,dispatchedToSQ:0rename tick,after: toIQInProgress:1,toRobInProgress0storesInProgress:0

in iew ,inst_from_rename size:0
in iew 
in iew sorted inst, get exe inst:0
in commit,getFromRename:0renamequeue:0in rename:
rename tick,before toIQ:1,toRob:0,storesInProgress:0
from IEW:dispatched:0 from commit:getfromrename:0
,dispatchedToSQ:0rename tick,after: toIQInProgress:1,toRobInProgress0storesInProgress:0

in iew ,inst_from_rename size:0
in iew 
in iew sorted inst, get exe inst:0
in commit,getFromRename:0renamequeue:0in rename:
rename tick,before toIQ:1,toRob:0,storesInProgress:0
from IEW:dispatched:0 from commit:getfromrename:0
,dispatchedToSQ:0rename tick,after: toIQInProgress:1,toRobInProgress0storesInProgress:0

in iew ,inst_from_rename size:1
in iew 
0 T0 : 04233743 `  MOV_R_R : mov   r13d, r13d, esi'
in iew sorted inst, get exe inst:1
in commit,getFromRename:0renamequeue:0in rename:
rename tick,before toIQ:1,toRob:0,storesInProgress:0
from IEW:dispatched:1 from commit:getfromrename:0
,dispatchedToSQ:0rename tick,after: toIQInProgress:0,toRobInProgress0storesInProgress:0

in iew ,inst_from_rename size:0
in iew 
in iew sorted inst, get exe inst:0
in commit,getFromRename:0renamequeue:0in rename:
rename tick,before toIQ:0,toRob:0,storesInProgress:0
from IEW:dispatched:0 from commit:getfromrename:0
,dispatchedToSQ:0rename tick,after: toIQInProgress:0,toRobInProgress0storesInProgress:0

in iew ,inst_from_rename size:0
in iew 
in iew sorted inst, get exe inst:0
in commit,getFromRename:0renamequeue:0in rename:
rename tick,before toIQ:0,toRob:0,storesInProgress:0
from IEW:dispatched:0 from commit:getfromrename:0
,dispatchedToSQ:0rename tick,after: toIQInProgress:0,toRobInProgress0storesInProgress:0

in iew ,inst_from_rename size:0
in iew 
in iew sorted inst, get exe inst:0
in commit,getFromRename:0renamequeue:0in rename:
0 T0 : 04233746 `  PUSH_R : stis   r12, SS:[rsp + 0xfffffffffffffff8]'
rename tick,before toIQ:1,toRob:0,storesInProgress:1
from IEW:dispatched:0 from commit:getfromrename:0
,dispatchedToSQ:0rename tick,after: toIQInProgress:1,toRobInProgress0storesInProgress:1

in iew ,inst_from_rename size:0
in iew 
in iew sorted inst, get exe inst:0
in commit,getFromRename:0renamequeue:0in rename:
rename tick,before toIQ:1,toRob:0,storesInProgress:1
from IEW:dispatched:0 from commit:getfromrename:0
,dispatchedToSQ:0rename tick,after: toIQInProgress:1,toRobInProgress0storesInProgress:1

in iew ,inst_from_rename size:0
in iew 
in iew sorted inst, get exe inst:0
in commit,getFromRename:0renamequeue:0in rename:
rename tick,before toIQ:1,toRob:0,storesInProgress:1
from IEW:dispatched:0 from commit:getfromrename:0
,dispatchedToSQ:0rename tick,after: toIQInProgress:1,toRobInProgress0storesInProgress:1

in iew ,inst_from_rename size:1
in iew 
0 T0 : 04233746 `  PUSH_R : stis   r12, SS:[rsp + 0xfffffffffffffff8]'
in iew sorted inst, get exe inst:1
in commit,getFromRename:0renamequeue:0in rename:
rename tick,before toIQ:1,toRob:0,storesInProgress:1
from IEW:dispatched:1 from commit:getfromrename:0
,dispatchedToSQ:1rename tick,after: toIQInProgress:0,toRobInProgress0storesInProgress:0

in iew ,inst_from_rename size:0
in iew 
in iew sorted inst, get exe inst:0
in commit,getFromRename:0renamequeue:0in rename:
rename tick,before toIQ:0,toRob:0,storesInProgress:0
from IEW:dispatched:0 from commit:getfromrename:0
,dispatchedToSQ:0rename tick,after: toIQInProgress:0,toRobInProgress0storesInProgress:0

in iew ,inst_from_rename size:0
in iew 
in iew sorted inst, get exe inst:0
in commit,getFromRename:0renamequeue:0in rename:
rename tick,before toIQ:0,toRob:0,storesInProgress:0
from IEW:dispatched:0 from commit:getfromrename:0
,dispatchedToSQ:0rename tick,after: toIQInProgress:0,toRobInProgress0storesInProgress:0

in iew ,inst_from_rename size:0
in iew 
in iew sorted inst, get exe inst:0
in commit,getFromRename:0renamequeue:0in rename:
0 T0 : 04233746 `  PUSH_R : subi   rsp, rsp, 0x8'
rename tick,before toIQ:1,toRob:0,storesInProgress:0
from IEW:dispatched:0 from commit:getfromrename:0
,dispatchedToSQ:0rename tick,after: toIQInProgress:1,toRobInProgress0storesInProgress:0

in iew ,inst_from_rename size:0
in iew 
in iew sorted inst, get exe inst:0
in commit,getFromRename:0renamequeue:0in rename:
rename tick,before toIQ:1,toRob:0,storesInProgress:0
from IEW:dispatched:0 from commit:getfromrename:0
,dispatchedToSQ:0rename tick,after: toIQInProgress:1,toRobInProgress0storesInProgress:0

in iew ,inst_from_rename size:0
in iew 
in iew sorted inst, get exe inst:0
in commit,getFromRename:0renamequeue:0in rename:
rename tick,before toIQ:1,toRob:0,storesInProgress:0
from IEW:dispatched:0 from commit:getfromrename:0
,dispatchedToSQ:0rename tick,after: toIQInProgress:1,toRobInProgress0storesInProgress:0

in iew ,inst_from_rename size:1
in iew 
0 T0 : 04233746 `  PUSH_R : subi   rsp, rsp, 0x8'
in iew sorted inst, get exe inst:1
in commit,getFromRename:0renamequeue:0in rename:
rename tick,before toIQ:1,toRob:0,storesInProgress:0
from IEW:dispatched:1 from commit:getfromrename:0
,dispatchedToSQ:0rename tick,after: toIQInProgress:0,toRobInProgress0storesInProgress:0

in iew ,inst_from_rename size:0
in iew 
in iew sorted inst, get exe inst:0
in commit,getFromRename:0renamequeue:0in rename:
rename tick,before toIQ:0,toRob:0,storesInProgress:0
from IEW:dispatched:0 from commit:getfromrename:0
,dispatchedToSQ:0rename tick,after: toIQInProgress:0,toRobInProgress0storesInProgress:0

in iew ,inst_from_rename size:0
in iew 
in iew sorted inst, get exe inst:0
in commit,getFromRename:0renamequeue:0in rename:
rename tick,before toIQ:0,toRob:0,storesInProgress:0
from IEW:dispatched:0 from commit:getfromrename:0
,dispatchedToSQ:0rename tick,after: toIQInProgress:0,toRobInProgress0storesInProgress:0

in iew ,inst_from_rename size:0
in iew 
in iew sorted inst, get exe inst:0
in commit,getFromRename:0renamequeue:0in rename:
0 T0 : 04233750 `  SUB_R_I : limm   t1, 0x1f8'
rename tick,before toIQ:1,toRob:0,storesInProgress:0
from IEW:dispatched:0 from commit:getfromrename:0
,dispatchedToSQ:0rename tick,after: toIQInProgress:1,toRobInProgress0storesInProgress:0

in iew ,inst_from_rename size:0
in iew 
in iew sorted inst, get exe inst:0
in commit,getFromRename:0renamequeue:0in rename:
rename tick,before toIQ:1,toRob:0,storesInProgress:0
from IEW:dispatched:0 from commit:getfromrename:0
,dispatchedToSQ:0rename tick,after: toIQInProgress:1,toRobInProgress0storesInProgress:0

in iew ,inst_from_rename size:0
in iew 
in iew sorted inst, get exe inst:0
in commit,getFromRename:0renamequeue:0in rename:
rename tick,before toIQ:1,toRob:0,storesInProgress:0
from IEW:dispatched:0 from commit:getfromrename:0
,dispatchedToSQ:0rename tick,after: toIQInProgress:1,toRobInProgress0storesInProgress:0

in iew ,inst_from_rename size:1
in iew 
0 T0 : 04233750 `  SUB_R_I : limm   t1, 0x1f8'
in iew sorted inst, get exe inst:1
in commit,getFromRename:0renamequeue:0in rename:
rename tick,before toIQ:1,toRob:0,storesInProgress:0
from IEW:dispatched:1 from commit:getfromrename:0
,dispatchedToSQ:0rename tick,after: toIQInProgress:0,toRobInProgress0storesInProgress:0

in iew ,inst_from_rename size:0
in iew 
in iew sorted inst, get exe inst:0
in commit,getFromRename:0renamequeue:0in rename:
rename tick,before toIQ:0,toRob:0,storesInProgress:0
from IEW:dispatched:0 from commit:getfromrename:0
,dispatchedToSQ:0rename tick,after: toIQInProgress:0,toRobInProgress0storesInProgress:0

in iew ,inst_from_rename size:0
in iew 
in iew sorted inst, get exe inst:0
in commit,getFromRename:0renamequeue:0in rename:
rename tick,before toIQ:0,toRob:0,storesInProgress:0
from IEW:dispatched:0 from commit:getfromrename:0
,dispatchedToSQ:0rename tick,after: toIQInProgress:0,toRobInProgress0storesInProgress:0

in iew ,inst_from_rename size:0
in iew 
in iew sorted inst, get exe inst:0
in commit,getFromRename:0renamequeue:0in rename:
0 T0 : 04233750 `  SUB_R_I : sub   rsp, rsp, t1'
rename tick,before toIQ:1,toRob:0,storesInProgress:0
from IEW:dispatched:0 from commit:getfromrename:0
,dispatchedToSQ:0rename tick,after: toIQInProgress:1,toRobInProgress0storesInProgress:0

in iew ,inst_from_rename size:0
in iew 
in iew sorted inst, get exe inst:0
in commit,getFromRename:0renamequeue:0in rename:
rename tick,before toIQ:1,toRob:0,storesInProgress:0
from IEW:dispatched:0 from commit:getfromrename:0
,dispatchedToSQ:0rename tick,after: toIQInProgress:1,toRobInProgress0storesInProgress:0

in iew ,inst_from_rename size:0
in iew 
in iew sorted inst, get exe inst:0
in commit,getFromRename:0renamequeue:0in rename:
rename tick,before toIQ:1,toRob:0,storesInProgress:0
from IEW:dispatched:0 from commit:getfromrename:0
,dispatchedToSQ:0rename tick,after: toIQInProgress:1,toRobInProgress0storesInProgress:0

in iew ,inst_from_rename size:1
in iew 
0 T0 : 04233750 `  SUB_R_I : sub   rsp, rsp, t1'
in iew sorted inst, get exe inst:1
in commit,getFromRename:0renamequeue:0in rename:
rename tick,before toIQ:1,toRob:0,storesInProgress:0
from IEW:dispatched:1 from commit:getfromrename:0
,dispatchedToSQ:0rename tick,after: toIQInProgress:0,toRobInProgress0storesInProgress:0

in iew ,inst_from_rename size:0
in iew 
in iew sorted inst, get exe inst:0
in commit,getFromRename:0renamequeue:0in rename:
rename tick,before toIQ:0,toRob:0,storesInProgress:0
from IEW:dispatched:0 from commit:getfromrename:0
,dispatchedToSQ:0rename tick,after: toIQInProgress:0,toRobInProgress0storesInProgress:0

in iew ,inst_from_rename size:0
in iew 
in iew sorted inst, get exe inst:0
in commit,getFromRename:0renamequeue:0in rename:
rename tick,before toIQ:0,toRob:0,storesInProgress:0
from IEW:dispatched:0 from commit:getfromrename:0
,dispatchedToSQ:0rename tick,after: toIQInProgress:0,toRobInProgress0storesInProgress:0

in iew ,inst_from_rename size:0
in iew 
in iew sorted inst, get exe inst:0
in commit,getFromRename:0renamequeue:0in rename:
0 T0 : 04233757 `  MOV_M_R : st   rdi, DS:[rsp + 0x18]'
rename tick,before toIQ:1,toRob:0,storesInProgress:1
from IEW:dispatched:0 from commit:getfromrename:0
,dispatchedToSQ:0rename tick,after: toIQInProgress:1,toRobInProgress0storesInProgress:1

in iew ,inst_from_rename size:0
in iew 
in iew sorted inst, get exe inst:0
in commit,getFromRename:0renamequeue:0in rename:
rename tick,before toIQ:1,toRob:0,storesInProgress:1
from IEW:dispatched:0 from commit:getfromrename:0
,dispatchedToSQ:0rename tick,after: toIQInProgress:1,toRobInProgress0storesInProgress:1

in iew ,inst_from_rename size:0
in iew 
in iew sorted inst, get exe inst:0
in commit,getFromRename:0renamequeue:0in rename:
rename tick,before toIQ:1,toRob:0,storesInProgress:1
from IEW:dispatched:0 from commit:getfromrename:0
,dispatchedToSQ:0rename tick,after: toIQInProgress:1,toRobInProgress0storesInProgress:1

in iew ,inst_from_rename size:1
in iew 
0 T0 : 04233757 `  MOV_M_R : st   rdi, DS:[rsp + 0x18]'
in iew sorted inst, get exe inst:1
in commit,getFromRename:0renamequeue:0in rename:
rename tick,before toIQ:1,toRob:0,storesInProgress:1
from IEW:dispatched:1 from commit:getfromrename:0
,dispatchedToSQ:1rename tick,after: toIQInProgress:0,toRobInProgress0storesInProgress:0

in iew ,inst_from_rename size:0
in iew 
in iew sorted inst, get exe inst:0
in commit,getFromRename:0renamequeue:0in rename:
rename tick,before toIQ:0,toRob:0,storesInProgress:0
from IEW:dispatched:0 from commit:getfromrename:0
,dispatchedToSQ:0rename tick,after: toIQInProgress:0,toRobInProgress0storesInProgress:0

in iew ,inst_from_rename size:0
in iew 
in iew sorted inst, get exe inst:0
in commit,getFromRename:0renamequeue:0in rename:
rename tick,before toIQ:0,toRob:0,storesInProgress:0
from IEW:dispatched:0 from commit:getfromrename:0
,dispatchedToSQ:0rename tick,after: toIQInProgress:0,toRobInProgress0storesInProgress:0

in iew ,inst_from_rename size:0
in iew 
in iew sorted inst, get exe inst:0
in commit,getFromRename:0renamequeue:0in rename:
0 T0 : 04233762 `  LEA_R_M : lea   rdi, DS:[8*rax + rdx + 0x8]'
rename tick,before toIQ:1,toRob:0,storesInProgress:0
from IEW:dispatched:0 from commit:getfromrename:0
,dispatchedToSQ:0rename tick,after: toIQInProgress:1,toRobInProgress0storesInProgress:0

in iew ,inst_from_rename size:0
in iew 
in iew sorted inst, get exe inst:0
in commit,getFromRename:0renamequeue:0in rename:
rename tick,before toIQ:1,toRob:0,storesInProgress:0
from IEW:dispatched:0 from commit:getfromrename:0
,dispatchedToSQ:0rename tick,after: toIQInProgress:1,toRobInProgress0storesInProgress:0

in iew ,inst_from_rename size:0
in iew 
in iew sorted inst, get exe inst:0
in commit,getFromRename:0renamequeue:0in rename:
rename tick,before toIQ:1,toRob:0,storesInProgress:0
from IEW:dispatched:0 from commit:getfromrename:0
,dispatchedToSQ:0rename tick,after: toIQInProgress:1,toRobInProgress0storesInProgress:0

in iew ,inst_from_rename size:1
in iew 
0 T0 : 04233762 `  LEA_R_M : lea   rdi, DS:[8*rax + rdx + 0x8]'
in iew sorted inst, get exe inst:1
in commit,getFromRename:0renamequeue:0in rename:
rename tick,before toIQ:1,toRob:0,storesInProgress:0
from IEW:dispatched:1 from commit:getfromrename:0
,dispatchedToSQ:0rename tick,after: toIQInProgress:0,toRobInProgress0storesInProgress:0

in iew ,inst_from_rename size:0
in iew 
in iew sorted inst, get exe inst:0
in commit,getFromRename:0renamequeue:0in rename:
rename tick,before toIQ:0,toRob:0,storesInProgress:0
from IEW:dispatched:0 from commit:getfromrename:0
,dispatchedToSQ:0rename tick,after: toIQInProgress:0,toRobInProgress0storesInProgress:0

in iew ,inst_from_rename size:0
in iew 
in iew sorted inst, get exe inst:0
in commit,getFromRename:0renamequeue:0in rename:
rename tick,before toIQ:0,toRob:0,storesInProgress:0
from IEW:dispatched:0 from commit:getfromrename:0
,dispatchedToSQ:0rename tick,after: toIQInProgress:0,toRobInProgress0storesInProgress:0

in iew ,inst_from_rename size:0
in iew 
in iew sorted inst, get exe inst:0
in commit,getFromRename:0renamequeue:0in rename:
0 T0 : 04233782 `  MOV_M_R : st   r8, DS:[rsp + 0x8]'
rename tick,before toIQ:1,toRob:0,storesInProgress:1
from IEW:dispatched:0 from commit:getfromrename:0
,dispatchedToSQ:0rename tick,after: toIQInProgress:1,toRobInProgress0storesInProgress:1

in iew ,inst_from_rename size:0
in iew 
in iew sorted inst, get exe inst:0
in commit,getFromRename:0renamequeue:0in rename:
rename tick,before toIQ:1,toRob:0,storesInProgress:1
from IEW:dispatched:0 from commit:getfromrename:0
,dispatchedToSQ:0rename tick,after: toIQInProgress:1,toRobInProgress0storesInProgress:1

in iew ,inst_from_rename size:0
in iew 
in iew sorted inst, get exe inst:0
in commit,getFromRename:0renamequeue:0in rename:
rename tick,before toIQ:1,toRob:0,storesInProgress:1
from IEW:dispatched:0 from commit:getfromrename:0
,dispatchedToSQ:0rename tick,after: toIQInProgress:1,toRobInProgress0storesInProgress:1

in iew ,inst_from_rename size:1
in iew 
0 T0 : 04233782 `  MOV_M_R : st   r8, DS:[rsp + 0x8]'
in iew sorted inst, get exe inst:1
in commit,getFromRename:0renamequeue:0in rename:
rename tick,before toIQ:1,toRob:0,storesInProgress:1
from IEW:dispatched:1 from commit:getfromrename:0
,dispatchedToSQ:1rename tick,after: toIQInProgress:0,toRobInProgress0storesInProgress:0

in iew ,inst_from_rename size:0
in iew 
in iew sorted inst, get exe inst:0
in commit,getFromRename:0renamequeue:0in rename:
rename tick,before toIQ:0,toRob:0,storesInProgress:0
from IEW:dispatched:0 from commit:getfromrename:0
,dispatchedToSQ:0rename tick,after: toIQInProgress:0,toRobInProgress0storesInProgress:0

in iew ,inst_from_rename size:0
in iew 
in iew sorted inst, get exe inst:0
in commit,getFromRename:0renamequeue:0in rename:
rename tick,before toIQ:0,toRob:0,storesInProgress:0
from IEW:dispatched:0 from commit:getfromrename:0
,dispatchedToSQ:0rename tick,after: toIQInProgress:0,toRobInProgress0storesInProgress:0

in iew ,inst_from_rename size:0
in iew 
in iew sorted inst, get exe inst:0
in commit,getFromRename:0renamequeue:0in rename:
0 T0 : 04233787 `  JZ_I : rdip   t1, %ctrl153, '
rename tick,before toIQ:1,toRob:0,storesInProgress:0
from IEW:dispatched:0 from commit:getfromrename:0
,dispatchedToSQ:0rename tick,after: toIQInProgress:1,toRobInProgress0storesInProgress:0

in iew ,inst_from_rename size:0
in iew 
in iew sorted inst, get exe inst:0
in commit,getFromRename:0renamequeue:0in rename:
rename tick,before toIQ:1,toRob:0,storesInProgress:0
from IEW:dispatched:0 from commit:getfromrename:0
,dispatchedToSQ:0rename tick,after: toIQInProgress:1,toRobInProgress0storesInProgress:0

in iew ,inst_from_rename size:0
in iew 
in iew sorted inst, get exe inst:0
in commit,getFromRename:0renamequeue:0in rename:
rename tick,before toIQ:1,toRob:0,storesInProgress:0
from IEW:dispatched:0 from commit:getfromrename:0
,dispatchedToSQ:0rename tick,after: toIQInProgress:1,toRobInProgress0storesInProgress:0

in iew ,inst_from_rename size:1
in iew 
0 T0 : 04233787 `  JZ_I : rdip   t1, %ctrl153, '
in iew sorted inst, get exe inst:1
in commit,getFromRename:0renamequeue:0in rename:
rename tick,before toIQ:1,toRob:0,storesInProgress:0
from IEW:dispatched:1 from commit:getfromrename:0
,dispatchedToSQ:0rename tick,after: toIQInProgress:0,toRobInProgress0storesInProgress:0

in iew ,inst_from_rename size:0
in iew 
in iew sorted inst, get exe inst:0
in commit,getFromRename:0renamequeue:0in rename:
rename tick,before toIQ:0,toRob:0,storesInProgress:0
from IEW:dispatched:0 from commit:getfromrename:0
,dispatchedToSQ:0rename tick,after: toIQInProgress:0,toRobInProgress0storesInProgress:0

in iew ,inst_from_rename size:0
in iew 
in iew sorted inst, get exe inst:0
in commit,getFromRename:0renamequeue:0in rename:
rename tick,before toIQ:0,toRob:0,storesInProgress:0
from IEW:dispatched:0 from commit:getfromrename:0
,dispatchedToSQ:0rename tick,after: toIQInProgress:0,toRobInProgress0storesInProgress:0

in iew ,inst_from_rename size:0
in iew 
in iew sorted inst, get exe inst:0
in commit,getFromRename:0renamequeue:0in rename:
0 T0 : 04233787 `  JZ_I : limm   t2, 0x12'
rename tick,before toIQ:1,toRob:0,storesInProgress:0
from IEW:dispatched:0 from commit:getfromrename:0
,dispatchedToSQ:0rename tick,after: toIQInProgress:1,toRobInProgress0storesInProgress:0

in iew ,inst_from_rename size:0
in iew 
in iew sorted inst, get exe inst:0
in commit,getFromRename:0renamequeue:0in rename:
rename tick,before toIQ:1,toRob:0,storesInProgress:0
from IEW:dispatched:0 from commit:getfromrename:0
,dispatchedToSQ:0rename tick,after: toIQInProgress:1,toRobInProgress0storesInProgress:0

in iew ,inst_from_rename size:0
in iew 
in iew sorted inst, get exe inst:0
in commit,getFromRename:0renamequeue:0in rename:
rename tick,before toIQ:1,toRob:0,storesInProgress:0
from IEW:dispatched:0 from commit:getfromrename:0
,dispatchedToSQ:0rename tick,after: toIQInProgress:1,toRobInProgress0storesInProgress:0

in iew ,inst_from_rename size:1
in iew 
0 T0 : 04233787 `  JZ_I : limm   t2, 0x12'
in iew sorted inst, get exe inst:1
in commit,getFromRename:0renamequeue:0in rename:
rename tick,before toIQ:1,toRob:0,storesInProgress:0
from IEW:dispatched:1 from commit:getfromrename:0
,dispatchedToSQ:0rename tick,after: toIQInProgress:0,toRobInProgress0storesInProgress:0

in iew ,inst_from_rename size:0
in iew 
in iew sorted inst, get exe inst:0
in commit,getFromRename:0renamequeue:0in rename:
rename tick,before toIQ:0,toRob:0,storesInProgress:0
from IEW:dispatched:0 from commit:getfromrename:0
,dispatchedToSQ:0rename tick,after: toIQInProgress:0,toRobInProgress0storesInProgress:0

in iew ,inst_from_rename size:0
in iew 
in iew sorted inst, get exe inst:0
in commit,getFromRename:0renamequeue:0in rename:
rename tick,before toIQ:0,toRob:0,storesInProgress:0
from IEW:dispatched:0 from commit:getfromrename:0
,dispatchedToSQ:0rename tick,after: toIQInProgress:0,toRobInProgress0storesInProgress:0

in iew ,inst_from_rename size:0
in iew 
in iew sorted inst, get exe inst:0
in commit,getFromRename:0renamequeue:0in rename:
0 T0 : 04233787 `  JZ_I : wrip   , t1, t2'
rename tick,before toIQ:1,toRob:0,storesInProgress:0
from IEW:dispatched:0 from commit:getfromrename:0
,dispatchedToSQ:0rename tick,after: toIQInProgress:1,toRobInProgress0storesInProgress:0

in iew ,inst_from_rename size:0
in iew 
in iew sorted inst, get exe inst:0
in commit,getFromRename:0renamequeue:0in rename:
rename tick,before toIQ:1,toRob:0,storesInProgress:0
from IEW:dispatched:0 from commit:getfromrename:0
,dispatchedToSQ:0rename tick,after: toIQInProgress:1,toRobInProgress0storesInProgress:0

in iew ,inst_from_rename size:0
in iew 
in iew sorted inst, get exe inst:0
in commit,getFromRename:0renamequeue:0in rename:
rename tick,before toIQ:1,toRob:0,storesInProgress:0
from IEW:dispatched:0 from commit:getfromrename:0
,dispatchedToSQ:0rename tick,after: toIQInProgress:1,toRobInProgress0storesInProgress:0

in iew ,inst_from_rename size:1
in iew 
0 T0 : 04233787 `  JZ_I : wrip   , t1, t2'
in iew sorted inst, get exe inst:1
in commit,getFromRename:0renamequeue:0in rename:
rename tick,before toIQ:1,toRob:0,storesInProgress:0
from IEW:dispatched:1 from commit:getfromrename:0
,dispatchedToSQ:0rename tick,after: toIQInProgress:0,toRobInProgress0storesInProgress:0

in iew ,inst_from_rename size:0
in iew 
in iew sorted inst, get exe inst:0
in commit,getFromRename:0renamequeue:0in rename:
rename tick,before toIQ:0,toRob:0,storesInProgress:0
from IEW:dispatched:0 from commit:getfromrename:0
,dispatchedToSQ:0rename tick,after: toIQInProgress:0,toRobInProgress0storesInProgress:0

in iew ,inst_from_rename size:0
in iew 
in iew sorted inst, get exe inst:0
in commit,getFromRename:0renamequeue:0in rename:
rename tick,before toIQ:0,toRob:0,storesInProgress:0
from IEW:dispatched:0 from commit:getfromrename:0
,dispatchedToSQ:0rename tick,after: toIQInProgress:0,toRobInProgress0storesInProgress:0

in iew ,inst_from_rename size:0
in iew 
in iew sorted inst, get exe inst:0
in commit,getFromRename:0renamequeue:0in rename:
rename tick,before toIQ:0,toRob:0,storesInProgress:0
from IEW:dispatched:0 from commit:getfromrename:0
,dispatchedToSQ:0rename tick,after: toIQInProgress:0,toRobInProgress0storesInProgress:0

in iew ,inst_from_rename size:0
in iew 
in iew sorted inst, get exe inst:0
in commit,getFromRename:0renamequeue:0in rename:
rename tick,before toIQ:0,toRob:0,storesInProgress:0
from IEW:dispatched:0 from commit:getfromrename:0
,dispatchedToSQ:0rename tick,after: toIQInProgress:0,toRobInProgress0storesInProgress:0

in iew ,inst_from_rename size:0
in iew 
in iew sorted inst, get exe inst:0
in commit,getFromRename:0renamequeue:0in rename:
to commit,commit size:1 iew size:0noNeedExe:1 T0 : 00038982 `gem5 nop'
rename tick,before toIQ:0,toRob:1,storesInProgress:0
from IEW:dispatched:0 from commit:getfromrename:0
,dispatchedToSQ:0rename tick,after: toIQInProgress:0,toRobInProgress1storesInProgress:0

in iew ,inst_from_rename size:0
in iew 
in iew sorted inst, get exe inst:0
in commit,getFromRename:0renamequeue:0in rename:
rename tick,before toIQ:0,toRob:1,storesInProgress:0
from IEW:dispatched:0 from commit:getfromrename:0
,dispatchedToSQ:0rename tick,after: toIQInProgress:0,toRobInProgress1storesInProgress:0

in iew ,inst_from_rename size:0
in iew 
in iew sorted inst, get exe inst:0
in commit,getFromRename:1renamequeue:1in rename:
0 T0 : 00038982 `gem5 nop'
rename tick,before toIQ:1,toRob:1,storesInProgress:0
from IEW:dispatched:0 from commit:getfromrename:1
,dispatchedToSQ:0rename tick,after: toIQInProgress:1,toRobInProgress0storesInProgress:0

in iew ,inst_from_rename size:0
in iew 
in iew sorted inst, get exe inst:0
in commit,getFromRename:0renamequeue:0in rename:
rename tick,before toIQ:1,toRob:0,storesInProgress:0
from IEW:dispatched:0 from commit:getfromrename:0
,dispatchedToSQ:0rename tick,after: toIQInProgress:1,toRobInProgress0storesInProgress:0

in iew ,inst_from_rename size:0
in iew 
in iew sorted inst, get exe inst:0
in commit,getFromRename:0renamequeue:0in rename:
rename tick,before toIQ:1,toRob:0,storesInProgress:0
from IEW:dispatched:0 from commit:getfromrename:0
,dispatchedToSQ:0rename tick,after: toIQInProgress:1,toRobInProgress0storesInProgress:0

in iew ,inst_from_rename size:1
in iew 
0 T0 : 00038982 `gem5 nop'
in iew sorted inst, get exe inst:1
in commit,getFromRename:0renamequeue:0in rename:
rename tick,before toIQ:1,toRob:0,storesInProgress:0
from IEW:dispatched:1 from commit:getfromrename:0
,dispatchedToSQ:0rename tick,after: toIQInProgress:0,toRobInProgress0storesInProgress:0

in iew ,inst_from_rename size:0
in iew 
in iew sorted inst, get exe inst:0
in commit,getFromRename:0renamequeue:0in rename:
rename tick,before toIQ:0,toRob:0,storesInProgress:0
from IEW:dispatched:0 from commit:getfromrename:0
,dispatchedToSQ:0rename tick,after: toIQInProgress:0,toRobInProgress0storesInProgress:0

in iew ,inst_from_rename size:0
in iew 
in iew sorted inst, get exe inst:0
in commit,getFromRename:0renamequeue:0in rename:
rename tick,before toIQ:0,toRob:0,storesInProgress:0
from IEW:dispatched:0 from commit:getfromrename:0
,dispatchedToSQ:0rename tick,after: toIQInProgress:0,toRobInProgress0storesInProgress:0

in iew ,inst_from_rename size:0
in iew 
in iew sorted inst, get exe inst:0
in commit,getFromRename:0renamequeue:0in rename:
rename tick,before toIQ:0,toRob:0,storesInProgress:0
from IEW:dispatched:0 from commit:getfromrename:0
,dispatchedToSQ:0rename tick,after: toIQInProgress:0,toRobInProgress0storesInProgress:0

in iew ,inst_from_rename size:0
in iew 
in iew sorted inst, get exe inst:0
in commit,getFromRename:0renamequeue:0in rename:
rename tick,before toIQ:0,toRob:0,storesInProgress:0
from IEW:dispatched:0 from commit:getfromrename:0
,dispatchedToSQ:0rename tick,after: toIQInProgress:0,toRobInProgress0storesInProgress:0

in iew ,inst_from_rename size:0
in iew 
in iew sorted inst, get exe inst:0
in commit,getFromRename:0renamequeue:0in rename:
to commit,commit size:1 iew size:0noNeedExe:1 T0 : 00038990 `gem5 nop'
rename tick,before toIQ:0,toRob:1,storesInProgress:0
from IEW:dispatched:0 from commit:getfromrename:0
,dispatchedToSQ:0rename tick,after: toIQInProgress:0,toRobInProgress1storesInProgress:0

in iew ,inst_from_rename size:0
in iew 
in iew sorted inst, get exe inst:0
in commit,getFromRename:0renamequeue:0in rename:
rename tick,before toIQ:0,toRob:1,storesInProgress:0
from IEW:dispatched:0 from commit:getfromrename:0
,dispatchedToSQ:0rename tick,after: toIQInProgress:0,toRobInProgress1storesInProgress:0

in iew ,inst_from_rename size:0
in iew 
in iew sorted inst, get exe inst:0
in commit,getFromRename:1renamequeue:1in rename:
rename tick,before toIQ:0,toRob:1,storesInProgress:0
from IEW:dispatched:0 from commit:getfromrename:1
,dispatchedToSQ:0rename tick,after: toIQInProgress:0,toRobInProgress0storesInProgress:0

in iew ,inst_from_rename size:0
in iew 
in iew sorted inst, get exe inst:0
in commit,getFromRename:0renamequeue:0in rename:
rename tick,before toIQ:0,toRob:0,storesInProgress:0
from IEW:dispatched:0 from commit:getfromrename:0
,dispatchedToSQ:0rename tick,after: toIQInProgress:0,toRobInProgress0storesInProgress:0

in iew ,inst_from_rename size:0
in iew 
in iew sorted inst, get exe inst:0
in commit,getFromRename:0renamequeue:0in rename:
rename tick,before toIQ:0,toRob:0,storesInProgress:0
from IEW:dispatched:0 from commit:getfromrename:0
,dispatchedToSQ:0rename tick,after: toIQInProgress:0,toRobInProgress0storesInProgress:0

in iew ,inst_from_rename size:0
in iew 
in iew sorted inst, get exe inst:0
in commit,getFromRename:0renamequeue:0in rename:
rename tick,before toIQ:0,toRob:0,storesInProgress:0
from IEW:dispatched:0 from commit:getfromrename:0
,dispatchedToSQ:0rename tick,after: toIQInProgress:0,toRobInProgress0storesInProgress:0

in iew ,inst_from_rename size:0
in iew 
in iew sorted inst, get exe inst:0
in commit,getFromRename:0renamequeue:0in rename:
rename tick,before toIQ:0,toRob:0,storesInProgress:0
from IEW:dispatched:0 from commit:getfromrename:0
,dispatchedToSQ:0rename tick,after: toIQInProgress:0,toRobInProgress0storesInProgress:0

in iew ,inst_from_rename size:0
in iew 
in iew sorted inst, get exe inst:0
in commit,getFromRename:0renamequeue:0in rename:
rename tick,before toIQ:0,toRob:0,storesInProgress:0
from IEW:dispatched:0 from commit:getfromrename:0
,dispatchedToSQ:0rename tick,after: toIQInProgress:0,toRobInProgress0storesInProgress:0

in iew ,inst_from_rename size:0
in iew 
in iew sorted inst, get exe inst:0
in commit,getFromRename:0renamequeue:0in rename:
rename tick,before toIQ:0,toRob:0,storesInProgress:0
from IEW:dispatched:0 from commit:getfromrename:0
,dispatchedToSQ:0rename tick,after: toIQInProgress:0,toRobInProgress0storesInProgress:0

in iew ,inst_from_rename size:0
in iew 
in iew sorted inst, get exe inst:0
in commit,getFromRename:0renamequeue:0in rename:
rename tick,before toIQ:0,toRob:0,storesInProgress:0
from IEW:dispatched:0 from commit:getfromrename:0
,dispatchedToSQ:0rename tick,after: toIQInProgress:0,toRobInProgress0storesInProgress:0

in iew ,inst_from_rename size:0
in iew 
in iew sorted inst, get exe inst:0
in commit,getFromRename:0renamequeue:0in rename:
rename tick,before toIQ:0,toRob:0,storesInProgress:0
from IEW:dispatched:0 from commit:getfromrename:0
,dispatchedToSQ:0rename tick,after: toIQInProgress:0,toRobInProgress0storesInProgress:0

in iew ,inst_from_rename size:0
in iew 
in iew sorted inst, get exe inst:0
in commit,getFromRename:0renamequeue:0in rename:
rename tick,before toIQ:0,toRob:0,storesInProgress:0
from IEW:dispatched:0 from commit:getfromrename:0
,dispatchedToSQ:0rename tick,after: toIQInProgress:0,toRobInProgress0storesInProgress:0

in iew ,inst_from_rename size:0
in iew 
in iew sorted inst, get exe inst:0
in commit,getFromRename:0renamequeue:0in rename:
rename tick,before toIQ:0,toRob:0,storesInProgress:0
from IEW:dispatched:0 from commit:getfromrename:0
,dispatchedToSQ:0rename tick,after: toIQInProgress:0,toRobInProgress0storesInProgress:0

in iew ,inst_from_rename size:0
in iew 
in iew sorted inst, get exe inst:0
in commit,getFromRename:0renamequeue:0in rename:
rename tick,before toIQ:0,toRob:0,storesInProgress:0
from IEW:dispatched:0 from commit:getfromrename:0
,dispatchedToSQ:0rename tick,after: toIQInProgress:0,toRobInProgress0storesInProgress:0

in iew ,inst_from_rename size:0
in iew 
in iew sorted inst, get exe inst:0
in commit,getFromRename:0renamequeue:0in rename:
rename tick,before toIQ:0,toRob:0,storesInProgress:0
from IEW:dispatched:0 from commit:getfromrename:0
,dispatchedToSQ:0rename tick,after: toIQInProgress:0,toRobInProgress0storesInProgress:0

in iew ,inst_from_rename size:0
in iew 
in iew sorted inst, get exe inst:0
in commit,getFromRename:0renamequeue:0in rename:
rename tick,before toIQ:0,toRob:0,storesInProgress:0
from IEW:dispatched:0 from commit:getfromrename:0
,dispatchedToSQ:0rename tick,after: toIQInProgress:0,toRobInProgress0storesInProgress:0

in iew ,inst_from_rename size:0
in iew 
in iew sorted inst, get exe inst:0
in commit,getFromRename:0renamequeue:0in rename:
rename tick,before toIQ:0,toRob:0,storesInProgress:0
from IEW:dispatched:0 from commit:getfromrename:0
,dispatchedToSQ:0rename tick,after: toIQInProgress:0,toRobInProgress0storesInProgress:0

in iew ,inst_from_rename size:0
in iew 
in iew sorted inst, get exe inst:0
in commit,getFromRename:0renamequeue:0in rename:
rename tick,before toIQ:0,toRob:0,storesInProgress:0
from IEW:dispatched:0 from commit:getfromrename:0
,dispatchedToSQ:0rename tick,after: toIQInProgress:0,toRobInProgress0storesInProgress:0

in iew ,inst_from_rename size:0
in iew 
in iew sorted inst, get exe inst:0
in commit,getFromRename:0renamequeue:0in rename:
rename tick,before toIQ:0,toRob:0,storesInProgress:0
from IEW:dispatched:0 from commit:getfromrename:0
,dispatchedToSQ:0rename tick,after: toIQInProgress:0,toRobInProgress0storesInProgress:0

in iew ,inst_from_rename size:0
in iew 
in iew sorted inst, get exe inst:0
in commit,getFromRename:0renamequeue:0in rename:
rename tick,before toIQ:0,toRob:0,storesInProgress:0
from IEW:dispatched:0 from commit:getfromrename:0
,dispatchedToSQ:0rename tick,after: toIQInProgress:0,toRobInProgress0storesInProgress:0

in iew ,inst_from_rename size:0
in iew 
in iew sorted inst, get exe inst:0
in commit,getFromRename:0renamequeue:0in rename:
rename tick,before toIQ:0,toRob:0,storesInProgress:0
from IEW:dispatched:0 from commit:getfromrename:0
,dispatchedToSQ:0rename tick,after: toIQInProgress:0,toRobInProgress0storesInProgress:0

in iew ,inst_from_rename size:0
in iew 
in iew sorted inst, get exe inst:0
in commit,getFromRename:0renamequeue:0in rename:
rename tick,before toIQ:0,toRob:0,storesInProgress:0
from IEW:dispatched:0 from commit:getfromrename:0
,dispatchedToSQ:0rename tick,after: toIQInProgress:0,toRobInProgress0storesInProgress:0

in iew ,inst_from_rename size:0
in iew 
in iew sorted inst, get exe inst:0
in commit,getFromRename:0renamequeue:0in rename:
rename tick,before toIQ:0,toRob:0,storesInProgress:0
from IEW:dispatched:0 from commit:getfromrename:0
,dispatchedToSQ:0rename tick,after: toIQInProgress:0,toRobInProgress0storesInProgress:0

in iew ,inst_from_rename size:0
in iew 
in iew sorted inst, get exe inst:0
in commit,getFromRename:0renamequeue:0in rename:
rename tick,before toIQ:0,toRob:0,storesInProgress:0
from IEW:dispatched:0 from commit:getfromrename:0
,dispatchedToSQ:0rename tick,after: toIQInProgress:0,toRobInProgress0storesInProgress:0

in iew ,inst_from_rename size:0
in iew 
in iew sorted inst, get exe inst:0
in commit,getFromRename:0renamequeue:0in rename:
rename tick,before toIQ:0,toRob:0,storesInProgress:0
from IEW:dispatched:0 from commit:getfromrename:0
,dispatchedToSQ:0rename tick,after: toIQInProgress:0,toRobInProgress0storesInProgress:0

in iew ,inst_from_rename size:0
in iew 
in iew sorted inst, get exe inst:0
in commit,getFromRename:0renamequeue:0in rename:
rename tick,before toIQ:0,toRob:0,storesInProgress:0
from IEW:dispatched:0 from commit:getfromrename:0
,dispatchedToSQ:0rename tick,after: toIQInProgress:0,toRobInProgress0storesInProgress:0

in iew ,inst_from_rename size:0
in iew 
in iew sorted inst, get exe inst:0
in commit,getFromRename:0renamequeue:0in rename:
rename tick,before toIQ:0,toRob:0,storesInProgress:0
from IEW:dispatched:0 from commit:getfromrename:0
,dispatchedToSQ:0rename tick,after: toIQInProgress:0,toRobInProgress0storesInProgress:0

in iew ,inst_from_rename size:0
in iew 
in iew sorted inst, get exe inst:0
in commit,getFromRename:0renamequeue:0in rename:
rename tick,before toIQ:0,toRob:0,storesInProgress:0
from IEW:dispatched:0 from commit:getfromrename:0
,dispatchedToSQ:0rename tick,after: toIQInProgress:0,toRobInProgress0storesInProgress:0

in iew ,inst_from_rename size:0
in iew 
in iew sorted inst, get exe inst:0
in commit,getFromRename:0renamequeue:0in rename:
rename tick,before toIQ:0,toRob:0,storesInProgress:0
from IEW:dispatched:0 from commit:getfromrename:0
,dispatchedToSQ:0rename tick,after: toIQInProgress:0,toRobInProgress0storesInProgress:0

in iew ,inst_from_rename size:0
in iew 
in iew sorted inst, get exe inst:0
in commit,getFromRename:0renamequeue:0in rename:
rename tick,before toIQ:0,toRob:0,storesInProgress:0
from IEW:dispatched:0 from commit:getfromrename:0
,dispatchedToSQ:0rename tick,after: toIQInProgress:0,toRobInProgress0storesInProgress:0

in iew ,inst_from_rename size:0
in iew 
in iew sorted inst, get exe inst:0
in commit,getFromRename:0renamequeue:0in rename:
rename tick,before toIQ:0,toRob:0,storesInProgress:0
from IEW:dispatched:0 from commit:getfromrename:0
,dispatchedToSQ:0rename tick,after: toIQInProgress:0,toRobInProgress0storesInProgress:0

in iew ,inst_from_rename size:0
in iew 
in iew sorted inst, get exe inst:0
in commit,getFromRename:0renamequeue:0in rename:
rename tick,before toIQ:0,toRob:0,storesInProgress:0
from IEW:dispatched:0 from commit:getfromrename:0
,dispatchedToSQ:0rename tick,after: toIQInProgress:0,toRobInProgress0storesInProgress:0

in iew ,inst_from_rename size:0
in iew 
in iew sorted inst, get exe inst:0
in commit,getFromRename:0renamequeue:0in rename:
rename tick,before toIQ:0,toRob:0,storesInProgress:0
from IEW:dispatched:0 from commit:getfromrename:0
,dispatchedToSQ:0rename tick,after: toIQInProgress:0,toRobInProgress0storesInProgress:0

in iew ,inst_from_rename size:0
in iew 
in iew sorted inst, get exe inst:0
in commit,getFromRename:0renamequeue:0in rename:
rename tick,before toIQ:0,toRob:0,storesInProgress:0
from IEW:dispatched:0 from commit:getfromrename:0
,dispatchedToSQ:0rename tick,after: toIQInProgress:0,toRobInProgress0storesInProgress:0

in iew ,inst_from_rename size:0
in iew 
in iew sorted inst, get exe inst:0
in commit,getFromRename:0renamequeue:0in rename:
rename tick,before toIQ:0,toRob:0,storesInProgress:0
from IEW:dispatched:0 from commit:getfromrename:0
,dispatchedToSQ:0rename tick,after: toIQInProgress:0,toRobInProgress0storesInProgress:0

in iew ,inst_from_rename size:0
in iew 
in iew sorted inst, get exe inst:0
in commit,getFromRename:0renamequeue:0in rename:
rename tick,before toIQ:0,toRob:0,storesInProgress:0
from IEW:dispatched:0 from commit:getfromrename:0
,dispatchedToSQ:0rename tick,after: toIQInProgress:0,toRobInProgress0storesInProgress:0

in iew ,inst_from_rename size:0
in iew 
in iew sorted inst, get exe inst:0
in commit,getFromRename:0renamequeue:0in rename:
rename tick,before toIQ:0,toRob:0,storesInProgress:0
from IEW:dispatched:0 from commit:getfromrename:0
,dispatchedToSQ:0rename tick,after: toIQInProgress:0,toRobInProgress0storesInProgress:0

in iew ,inst_from_rename size:0
in iew 
in iew sorted inst, get exe inst:0
in commit,getFromRename:0renamequeue:0in rename:
rename tick,before toIQ:0,toRob:0,storesInProgress:0
from IEW:dispatched:0 from commit:getfromrename:0
,dispatchedToSQ:0rename tick,after: toIQInProgress:0,toRobInProgress0storesInProgress:0

in iew ,inst_from_rename size:0
in iew 
in iew sorted inst, get exe inst:0
in commit,getFromRename:0renamequeue:0in rename:
rename tick,before toIQ:0,toRob:0,storesInProgress:0
from IEW:dispatched:0 from commit:getfromrename:0
,dispatchedToSQ:0rename tick,after: toIQInProgress:0,toRobInProgress0storesInProgress:0

in iew ,inst_from_rename size:0
in iew 
in iew sorted inst, get exe inst:0
in commit,getFromRename:0renamequeue:0in rename:
rename tick,before toIQ:0,toRob:0,storesInProgress:0
from IEW:dispatched:0 from commit:getfromrename:0
,dispatchedToSQ:0rename tick,after: toIQInProgress:0,toRobInProgress0storesInProgress:0

in iew ,inst_from_rename size:0
in iew 
in iew sorted inst, get exe inst:0
in commit,getFromRename:0renamequeue:0in rename:
rename tick,before toIQ:0,toRob:0,storesInProgress:0
from IEW:dispatched:0 from commit:getfromrename:0
,dispatchedToSQ:0rename tick,after: toIQInProgress:0,toRobInProgress0storesInProgress:0

in iew ,inst_from_rename size:0
in iew 
in iew sorted inst, get exe inst:0
in commit,getFromRename:0renamequeue:0in rename:
rename tick,before toIQ:0,toRob:0,storesInProgress:0
from IEW:dispatched:0 from commit:getfromrename:0
,dispatchedToSQ:0rename tick,after: toIQInProgress:0,toRobInProgress0storesInProgress:0

in iew ,inst_from_rename size:0
in iew 
in iew sorted inst, get exe inst:0
in commit,getFromRename:0renamequeue:0in rename:
rename tick,before toIQ:0,toRob:0,storesInProgress:0
from IEW:dispatched:0 from commit:getfromrename:0
,dispatchedToSQ:0rename tick,after: toIQInProgress:0,toRobInProgress0storesInProgress:0

in iew ,inst_from_rename size:0
in iew 
in iew sorted inst, get exe inst:0
in commit,getFromRename:0renamequeue:0in rename:
rename tick,before toIQ:0,toRob:0,storesInProgress:0
from IEW:dispatched:0 from commit:getfromrename:0
,dispatchedToSQ:0rename tick,after: toIQInProgress:0,toRobInProgress0storesInProgress:0

in iew ,inst_from_rename size:0
in iew 
in iew sorted inst, get exe inst:0
in commit,getFromRename:0renamequeue:0in rename:
rename tick,before toIQ:0,toRob:0,storesInProgress:0
from IEW:dispatched:0 from commit:getfromrename:0
,dispatchedToSQ:0rename tick,after: toIQInProgress:0,toRobInProgress0storesInProgress:0

in iew ,inst_from_rename size:0
in iew 
in iew sorted inst, get exe inst:0
in commit,getFromRename:0renamequeue:0in rename:
rename tick,before toIQ:0,toRob:0,storesInProgress:0
from IEW:dispatched:0 from commit:getfromrename:0
,dispatchedToSQ:0rename tick,after: toIQInProgress:0,toRobInProgress0storesInProgress:0

in iew ,inst_from_rename size:0
in iew 
in iew sorted inst, get exe inst:0
in commit,getFromRename:0renamequeue:0in rename:
rename tick,before toIQ:0,toRob:0,storesInProgress:0
from IEW:dispatched:0 from commit:getfromrename:0
,dispatchedToSQ:0rename tick,after: toIQInProgress:0,toRobInProgress0storesInProgress:0

in iew ,inst_from_rename size:0
in iew 
in iew sorted inst, get exe inst:0
in commit,getFromRename:0renamequeue:0in rename:
rename tick,before toIQ:0,toRob:0,storesInProgress:0
from IEW:dispatched:0 from commit:getfromrename:0
,dispatchedToSQ:0rename tick,after: toIQInProgress:0,toRobInProgress0storesInProgress:0

in iew ,inst_from_rename size:0
in iew 
in iew sorted inst, get exe inst:0
in commit,getFromRename:0renamequeue:0in rename:
rename tick,before toIQ:0,toRob:0,storesInProgress:0
from IEW:dispatched:0 from commit:getfromrename:0
,dispatchedToSQ:0rename tick,after: toIQInProgress:0,toRobInProgress0storesInProgress:0

in iew ,inst_from_rename size:0
in iew 
in iew sorted inst, get exe inst:0
in commit,getFromRename:0renamequeue:0in rename:
rename tick,before toIQ:0,toRob:0,storesInProgress:0
from IEW:dispatched:0 from commit:getfromrename:0
,dispatchedToSQ:0rename tick,after: toIQInProgress:0,toRobInProgress0storesInProgress:0

in iew ,inst_from_rename size:0
in iew 
in iew sorted inst, get exe inst:0
in commit,getFromRename:0renamequeue:0in rename:
rename tick,before toIQ:0,toRob:0,storesInProgress:0
from IEW:dispatched:0 from commit:getfromrename:0
,dispatchedToSQ:0rename tick,after: toIQInProgress:0,toRobInProgress0storesInProgress:0

in iew ,inst_from_rename size:0
in iew 
in iew sorted inst, get exe inst:0
in commit,getFromRename:0renamequeue:0in rename:
rename tick,before toIQ:0,toRob:0,storesInProgress:0
from IEW:dispatched:0 from commit:getfromrename:0
,dispatchedToSQ:0rename tick,after: toIQInProgress:0,toRobInProgress0storesInProgress:0

in iew ,inst_from_rename size:0
in iew 
in iew sorted inst, get exe inst:0
in commit,getFromRename:0renamequeue:0in rename:
rename tick,before toIQ:0,toRob:0,storesInProgress:0
from IEW:dispatched:0 from commit:getfromrename:0
,dispatchedToSQ:0rename tick,after: toIQInProgress:0,toRobInProgress0storesInProgress:0

in iew ,inst_from_rename size:0
in iew 
in iew sorted inst, get exe inst:0
in commit,getFromRename:0renamequeue:0in rename:
rename tick,before toIQ:0,toRob:0,storesInProgress:0
from IEW:dispatched:0 from commit:getfromrename:0
,dispatchedToSQ:0rename tick,after: toIQInProgress:0,toRobInProgress0storesInProgress:0

in iew ,inst_from_rename size:0
in iew 
in iew sorted inst, get exe inst:0
in commit,getFromRename:0renamequeue:0in rename:
rename tick,before toIQ:0,toRob:0,storesInProgress:0
from IEW:dispatched:0 from commit:getfromrename:0
,dispatchedToSQ:0rename tick,after: toIQInProgress:0,toRobInProgress0storesInProgress:0

in iew ,inst_from_rename size:0
in iew 
in iew sorted inst, get exe inst:0
in commit,getFromRename:0renamequeue:0in rename:
rename tick,before toIQ:0,toRob:0,storesInProgress:0
from IEW:dispatched:0 from commit:getfromrename:0
,dispatchedToSQ:0rename tick,after: toIQInProgress:0,toRobInProgress0storesInProgress:0

in iew ,inst_from_rename size:0
in iew 
in iew sorted inst, get exe inst:0
in commit,getFromRename:0renamequeue:0in rename:
rename tick,before toIQ:0,toRob:0,storesInProgress:0
from IEW:dispatched:0 from commit:getfromrename:0
,dispatchedToSQ:0rename tick,after: toIQInProgress:0,toRobInProgress0storesInProgress:0

in iew ,inst_from_rename size:0
in iew 
in iew sorted inst, get exe inst:0
in commit,getFromRename:0renamequeue:0in rename:
rename tick,before toIQ:0,toRob:0,storesInProgress:0
from IEW:dispatched:0 from commit:getfromrename:0
,dispatchedToSQ:0rename tick,after: toIQInProgress:0,toRobInProgress0storesInProgress:0

in iew ,inst_from_rename size:0
in iew 
in iew sorted inst, get exe inst:0
in commit,getFromRename:0renamequeue:0in rename:
rename tick,before toIQ:0,toRob:0,storesInProgress:0
from IEW:dispatched:0 from commit:getfromrename:0
,dispatchedToSQ:0rename tick,after: toIQInProgress:0,toRobInProgress0storesInProgress:0

in iew ,inst_from_rename size:0
in iew 
in iew sorted inst, get exe inst:0
in commit,getFromRename:0renamequeue:0in rename:
rename tick,before toIQ:0,toRob:0,storesInProgress:0
from IEW:dispatched:0 from commit:getfromrename:0
,dispatchedToSQ:0rename tick,after: toIQInProgress:0,toRobInProgress0storesInProgress:0

in iew ,inst_from_rename size:0
in iew 
in iew sorted inst, get exe inst:0
in commit,getFromRename:0renamequeue:0in rename:
rename tick,before toIQ:0,toRob:0,storesInProgress:0
from IEW:dispatched:0 from commit:getfromrename:0
,dispatchedToSQ:0rename tick,after: toIQInProgress:0,toRobInProgress0storesInProgress:0

in iew ,inst_from_rename size:0
in iew 
in iew sorted inst, get exe inst:0
in commit,getFromRename:0renamequeue:0in rename:
rename tick,before toIQ:0,toRob:0,storesInProgress:0
from IEW:dispatched:0 from commit:getfromrename:0
,dispatchedToSQ:0rename tick,after: toIQInProgress:0,toRobInProgress0storesInProgress:0

in iew ,inst_from_rename size:0
in iew 
in iew sorted inst, get exe inst:0
in commit,getFromRename:0renamequeue:0in rename:
rename tick,before toIQ:0,toRob:0,storesInProgress:0
from IEW:dispatched:0 from commit:getfromrename:0
,dispatchedToSQ:0rename tick,after: toIQInProgress:0,toRobInProgress0storesInProgress:0

in iew ,inst_from_rename size:0
in iew 
in iew sorted inst, get exe inst:0
in commit,getFromRename:0renamequeue:0in rename:
rename tick,before toIQ:0,toRob:0,storesInProgress:0
from IEW:dispatched:0 from commit:getfromrename:0
,dispatchedToSQ:0rename tick,after: toIQInProgress:0,toRobInProgress0storesInProgress:0

in iew ,inst_from_rename size:0
in iew 
in iew sorted inst, get exe inst:0
in commit,getFromRename:0renamequeue:0in rename:
rename tick,before toIQ:0,toRob:0,storesInProgress:0
from IEW:dispatched:0 from commit:getfromrename:0
,dispatchedToSQ:0rename tick,after: toIQInProgress:0,toRobInProgress0storesInProgress:0

in iew ,inst_from_rename size:0
in iew 
in iew sorted inst, get exe inst:0
in commit,getFromRename:0renamequeue:0in rename:
rename tick,before toIQ:0,toRob:0,storesInProgress:0
from IEW:dispatched:0 from commit:getfromrename:0
,dispatchedToSQ:0rename tick,after: toIQInProgress:0,toRobInProgress0storesInProgress:0

in iew ,inst_from_rename size:0
in iew 
in iew sorted inst, get exe inst:0
in commit,getFromRename:0renamequeue:0in rename:
rename tick,before toIQ:0,toRob:0,storesInProgress:0
from IEW:dispatched:0 from commit:getfromrename:0
,dispatchedToSQ:0rename tick,after: toIQInProgress:0,toRobInProgress0storesInProgress:0

in iew ,inst_from_rename size:0
in iew 
in iew sorted inst, get exe inst:0
in commit,getFromRename:0renamequeue:0in rename:
rename tick,before toIQ:0,toRob:0,storesInProgress:0
from IEW:dispatched:0 from commit:getfromrename:0
,dispatchedToSQ:0rename tick,after: toIQInProgress:0,toRobInProgress0storesInProgress:0

in iew ,inst_from_rename size:0
in iew 
in iew sorted inst, get exe inst:0
in commit,getFromRename:0renamequeue:0in rename:
rename tick,before toIQ:0,toRob:0,storesInProgress:0
from IEW:dispatched:0 from commit:getfromrename:0
,dispatchedToSQ:0rename tick,after: toIQInProgress:0,toRobInProgress0storesInProgress:0

in iew ,inst_from_rename size:0
in iew 
in iew sorted inst, get exe inst:0
in commit,getFromRename:0renamequeue:0in rename:
rename tick,before toIQ:0,toRob:0,storesInProgress:0
from IEW:dispatched:0 from commit:getfromrename:0
,dispatchedToSQ:0rename tick,after: toIQInProgress:0,toRobInProgress0storesInProgress:0

in iew ,inst_from_rename size:0
in iew 
in iew sorted inst, get exe inst:0
in commit,getFromRename:0renamequeue:0in rename:
rename tick,before toIQ:0,toRob:0,storesInProgress:0
from IEW:dispatched:0 from commit:getfromrename:0
,dispatchedToSQ:0rename tick,after: toIQInProgress:0,toRobInProgress0storesInProgress:0

in iew ,inst_from_rename size:0
in iew 
in iew sorted inst, get exe inst:0
in commit,getFromRename:0renamequeue:0in rename:
rename tick,before toIQ:0,toRob:0,storesInProgress:0
from IEW:dispatched:0 from commit:getfromrename:0
,dispatchedToSQ:0rename tick,after: toIQInProgress:0,toRobInProgress0storesInProgress:0

in iew ,inst_from_rename size:0
in iew 
in iew sorted inst, get exe inst:0
in commit,getFromRename:0renamequeue:0in rename:
rename tick,before toIQ:0,toRob:0,storesInProgress:0
from IEW:dispatched:0 from commit:getfromrename:0
,dispatchedToSQ:0rename tick,after: toIQInProgress:0,toRobInProgress0storesInProgress:0

in iew ,inst_from_rename size:0
in iew 
in iew sorted inst, get exe inst:0
in commit,getFromRename:0renamequeue:0in rename:
rename tick,before toIQ:0,toRob:0,storesInProgress:0
from IEW:dispatched:0 from commit:getfromrename:0
,dispatchedToSQ:0rename tick,after: toIQInProgress:0,toRobInProgress0storesInProgress:0

in iew ,inst_from_rename size:0
in iew 
in iew sorted inst, get exe inst:0
