gem5 Simulator System.  http://gem5.org
gem5 is copyrighted software; use the --copyright option for details.

gem5 compiled Apr  1 2019 19:54:06
gem5 started Apr  1 2019 19:55:00
gem5 executing on mprc-R730, pid 39680
command line: build/X86/gem5.opt configs/example/se.py --maxinsts=100 --cpu-type=DerivO3CPU --caches -c tests/test-progs/hello/bin/x86/linux/hello

Global frequency set at 1000000000000 ticks per second
**** REAL SIMULATION ****
in rename:
rename tick,before toIQ:0,toRob:0,storesInProgress:0
from IEW:dispatched:0 from commit:getfromrename:0
,dispatchedToSQ:0rename tick,after: toIQInProgress:0,toRobInProgress0storesInProgress:0

in iew ,inst_from_rename size:0
in iew 
in iew sorted inst, get exe inst:0
in commit,getFromRename:0renamequeue:0in rename:
rename tick,before toIQ:0,toRob:0,storesInProgress:0
from IEW:dispatched:0 from commit:getfromrename:0
,dispatchedToSQ:0rename tick,after: toIQInProgress:0,toRobInProgress0storesInProgress:0

in iew ,inst_from_rename size:0
in iew 
in iew sorted inst, get exe inst:0
in commit,getFromRename:0renamequeue:0in rename:
rename tick,before toIQ:0,toRob:0,storesInProgress:0
from IEW:dispatched:0 from commit:getfromrename:0
,dispatchedToSQ:0rename tick,after: toIQInProgress:0,toRobInProgress0storesInProgress:0

in iew ,inst_from_rename size:0
in iew 
in iew sorted inst, get exe inst:0
in commit,getFromRename:0renamequeue:0in rename:
rename tick,before toIQ:0,toRob:0,storesInProgress:0
from IEW:dispatched:0 from commit:getfromrename:0
,dispatchedToSQ:0rename tick,after: toIQInProgress:0,toRobInProgress0storesInProgress:0

in iew ,inst_from_rename size:0
in iew 
in iew sorted inst, get exe inst:0
in commit,getFromRename:0renamequeue:0in rename:
rename tick,before toIQ:0,toRob:0,storesInProgress:0
from IEW:dispatched:0 from commit:getfromrename:0
,dispatchedToSQ:0rename tick,after: toIQInProgress:0,toRobInProgress0storesInProgress:0

in iew ,inst_from_rename size:0
in iew 
in iew sorted inst, get exe inst:0
in commit,getFromRename:0renamequeue:0in rename:
rename tick,before toIQ:0,toRob:0,storesInProgress:0
from IEW:dispatched:0 from commit:getfromrename:0
,dispatchedToSQ:0rename tick,after: toIQInProgress:0,toRobInProgress0storesInProgress:0

in iew ,inst_from_rename size:0
in iew 
in iew sorted inst, get exe inst:0
in commit,getFromRename:0renamequeue:0in rename:
rename tick,before toIQ:0,toRob:0,storesInProgress:0
from IEW:dispatched:0 from commit:getfromrename:0
,dispatchedToSQ:0rename tick,after: toIQInProgress:0,toRobInProgress0storesInProgress:0

in iew ,inst_from_rename size:0
in iew 
in iew sorted inst, get exe inst:0
in commit,getFromRename:0renamequeue:0in rename:
rename tick,before toIQ:0,toRob:0,storesInProgress:0
from IEW:dispatched:0 from commit:getfromrename:0
,dispatchedToSQ:0rename tick,after: toIQInProgress:0,toRobInProgress0storesInProgress:0

in iew ,inst_from_rename size:0
in iew 
in iew sorted inst, get exe inst:0
in commit,getFromRename:0renamequeue:0in rename:
rename tick,before toIQ:0,toRob:0,storesInProgress:0
from IEW:dispatched:0 from commit:getfromrename:0
,dispatchedToSQ:0rename tick,after: toIQInProgress:0,toRobInProgress0storesInProgress:0

in iew ,inst_from_rename size:0
in iew 
in iew sorted inst, get exe inst:0
in commit,getFromRename:0renamequeue:0in rename:
rename tick,before toIQ:0,toRob:0,storesInProgress:0
from IEW:dispatched:0 from commit:getfromrename:0
,dispatchedToSQ:0rename tick,after: toIQInProgress:0,toRobInProgress0storesInProgress:0

in iew ,inst_from_rename size:0
in iew 
in iew sorted inst, get exe inst:0
in commit,getFromRename:0renamequeue:0in rename:
rename tick,before toIQ:0,toRob:0,storesInProgress:0
from IEW:dispatched:0 from commit:getfromrename:0
,dispatchedToSQ:0rename tick,after: toIQInProgress:0,toRobInProgress0storesInProgress:0

in iew ,inst_from_rename size:0
in iew 
in iew sorted inst, get exe inst:0
in commit,getFromRename:0renamequeue:0in rename:
rename tick,before toIQ:0,toRob:0,storesInProgress:0
from IEW:dispatched:0 from commit:getfromrename:0
,dispatchedToSQ:0rename tick,after: toIQInProgress:0,toRobInProgress0storesInProgress:0

in iew ,inst_from_rename size:0
in iew 
in iew sorted inst, get exe inst:0
in commit,getFromRename:0renamequeue:0in rename:
rename tick,before toIQ:0,toRob:0,storesInProgress:0
from IEW:dispatched:0 from commit:getfromrename:0
,dispatchedToSQ:0rename tick,after: toIQInProgress:0,toRobInProgress0storesInProgress:0

in iew ,inst_from_rename size:0
in iew 
in iew sorted inst, get exe inst:0
in commit,getFromRename:0renamequeue:0in rename:
rename tick,before toIQ:0,toRob:0,storesInProgress:0
from IEW:dispatched:0 from commit:getfromrename:0
,dispatchedToSQ:0rename tick,after: toIQInProgress:0,toRobInProgress0storesInProgress:0

in iew ,inst_from_rename size:0
in iew 
in iew sorted inst, get exe inst:0
in commit,getFromRename:0renamequeue:0in rename:
SN1get source op[0] value is:0
SN1get source op[1] value is:0
to iew,commit size:0 iew size:1noNeedExe:0 T0 : 04194704 `  XOR_R_R : xor   rbp, rbp, rbp'
to commit,commit size:1 iew size:1noNeedExe:0 T0 : 04194704 `  XOR_R_R : xor   rbp, rbp, rbp'
SN2get source op[0] value is:0
SN2get source op[1] value is:0
SN2get source op[2] value is:0
to iew,commit size:1 iew size:2noNeedExe:0 T0 : 04194707 `  MOV_R_R : mov   r9, r9, rdx'
to commit,commit size:2 iew size:2noNeedExe:0 T0 : 04194707 `  MOV_R_R : mov   r9, r9, rdx'
SN3get source op[0] value is:0
SN3get source op[1] value is:0
to iew,commit size:2 iew size:3noNeedExe:0 T0 : 04194710 `  POP_R : ldis   t1, SS:[rsp]'
to commit,commit size:3 iew size:3noNeedExe:0 T0 : 04194710 `  POP_R : ldis   t1, SS:[rsp]'
SN4get source op[0] value is:0
to iew,commit size:3 iew size:4noNeedExe:0 T0 : 04194710 `  POP_R : addi   rsp, rsp, 0x8'
to commit,commit size:4 iew size:4noNeedExe:0 T0 : 04194710 `  POP_R : addi   rsp, rsp, 0x8'
SN5get source op[0] value is:0
SN5get source op[2] value is:0
to iew,commit size:4 iew size:5noNeedExe:0 T0 : 04194710 `  POP_R : mov   rsi, rsi, t1'
to commit,commit size:5 iew size:5noNeedExe:0 T0 : 04194710 `  POP_R : mov   rsi, rsi, t1'
SN6get source op[0] value is:0
SN6get source op[2] value is:0
to iew,commit size:5 iew size:6noNeedExe:0 T0 : 04194711 `  MOV_R_R : mov   rdx, rdx, rsp'
to commit,commit size:6 iew size:6noNeedExe:0 T0 : 04194711 `  MOV_R_R : mov   rdx, rdx, rsp'
to iew,commit size:6 iew size:7noNeedExe:0 T0 : 04194714 `  AND_R_I : limm   t1, 0xfffffffffffffff0'
to commit,commit size:7 iew size:7noNeedExe:0 T0 : 04194714 `  AND_R_I : limm   t1, 0xfffffffffffffff0'
to iew,commit size:7 iew size:8noNeedExe:0 T0 : 04194714 `  AND_R_I : and   rsp, rsp, t1'
to commit,commit size:8 iew size:8noNeedExe:0 T0 : 04194714 `  AND_R_I : and   rsp, rsp, t1'
rename tick,before toIQ:8,toRob:8,storesInProgress:0
from IEW:dispatched:0 from commit:getfromrename:0
,dispatchedToSQ:0rename tick,after: toIQInProgress:8,toRobInProgress8storesInProgress:0

in iew ,inst_from_rename size:0
in iew 
in iew sorted inst, get exe inst:0
in commit,getFromRename:0renamequeue:0in rename:
SN9get source op[0] value is:0
SN9get source op[2] value is:0
to iew,commit size:0 iew size:1noNeedExe:0 T0 : 04194718 `  PUSH_R : stis   rax, SS:[rsp + 0xfffffffffffffff8]'
to commit,commit size:1 iew size:1noNeedExe:0 T0 : 04194718 `  PUSH_R : stis   rax, SS:[rsp + 0xfffffffffffffff8]'
to iew,commit size:1 iew size:2noNeedExe:0 T0 : 04194718 `  PUSH_R : subi   rsp, rsp, 0x8'
to commit,commit size:2 iew size:2noNeedExe:0 T0 : 04194718 `  PUSH_R : subi   rsp, rsp, 0x8'
SN11get source op[0] value is:0
to iew,commit size:2 iew size:3noNeedExe:0 T0 : 04194719 `  PUSH_R : stis   rsp, SS:[rsp + 0xfffffffffffffff8]'
to commit,commit size:3 iew size:3noNeedExe:0 T0 : 04194719 `  PUSH_R : stis   rsp, SS:[rsp + 0xfffffffffffffff8]'
to iew,commit size:3 iew size:4noNeedExe:0 T0 : 04194719 `  PUSH_R : subi   rsp, rsp, 0x8'
to commit,commit size:4 iew size:4noNeedExe:0 T0 : 04194719 `  PUSH_R : subi   rsp, rsp, 0x8'
to iew,commit size:4 iew size:5noNeedExe:0 T0 : 04194720 `  MOV_R_I : limm   r8, 0x40a060'
to commit,commit size:5 iew size:5noNeedExe:0 T0 : 04194720 `  MOV_R_I : limm   r8, 0x40a060'
to iew,commit size:5 iew size:6noNeedExe:0 T0 : 04194727 `  MOV_R_I : limm   rcx, 0x409ff0'
to commit,commit size:6 iew size:6noNeedExe:0 T0 : 04194727 `  MOV_R_I : limm   rcx, 0x409ff0'
to iew,commit size:6 iew size:7noNeedExe:0 T0 : 04194734 `  MOV_R_I : limm   rdi, 0x400274'
to commit,commit size:7 iew size:7noNeedExe:0 T0 : 04194734 `  MOV_R_I : limm   rdi, 0x400274'
to iew,commit size:7 iew size:8noNeedExe:0 T0 : 04194741 `  CALL_NEAR_I : limm   t1, 0x9846'
to commit,commit size:8 iew size:8noNeedExe:0 T0 : 04194741 `  CALL_NEAR_I : limm   t1, 0x9846'
rename tick,before toIQ:16,toRob:16,storesInProgress:2
from IEW:dispatched:0 from commit:getfromrename:0
,dispatchedToSQ:0rename tick,after: toIQInProgress:16,toRobInProgress16storesInProgress:2

in iew ,inst_from_rename size:0
in iew 
in iew sorted inst, get exe inst:0
in commit,getFromRename:8renamequeue:8in rename:
to iew,commit size:0 iew size:1noNeedExe:0 T0 : 04194741 `  CALL_NEAR_I : rdip   t7, %ctrl153, '
to commit,commit size:1 iew size:1noNeedExe:0 T0 : 04194741 `  CALL_NEAR_I : rdip   t7, %ctrl153, '
SN18get source op[0] value is:0
to iew,commit size:1 iew size:2noNeedExe:0 T0 : 04194741 `  CALL_NEAR_I : stis   t7, SS:[rsp + 0xfffffffffffffff8]'
to commit,commit size:2 iew size:2noNeedExe:0 T0 : 04194741 `  CALL_NEAR_I : stis   t7, SS:[rsp + 0xfffffffffffffff8]'
to iew,commit size:2 iew size:3noNeedExe:0 T0 : 04194741 `  CALL_NEAR_I : subi   rsp, rsp, 0x8'
to commit,commit size:3 iew size:3noNeedExe:0 T0 : 04194741 `  CALL_NEAR_I : subi   rsp, rsp, 0x8'
to iew,commit size:3 iew size:4noNeedExe:0 T0 : 04194741 `  CALL_NEAR_I : wrip   , t7, t1'
to commit,commit size:4 iew size:4noNeedExe:0 T0 : 04194741 `  CALL_NEAR_I : wrip   , t7, t1'
to iew,commit size:4 iew size:5noNeedExe:0 T0 : 04194746 `  HLT : halt   '
to commit,commit size:5 iew size:5noNeedExe:0 T0 : 04194746 `  HLT : halt   '
rename tick,before toIQ:21,toRob:21,storesInProgress:3
from IEW:dispatched:0 from commit:getfromrename:8
,dispatchedToSQ:0rename tick,after: toIQInProgress:21,toRobInProgress13storesInProgress:3

in iew ,inst_from_rename size:8
in iew 
0 T0 : 04194704 `  XOR_R_R : xor   rbp, rbp, rbp'
0 T0 : 04194707 `  MOV_R_R : mov   r9, r9, rdx'
0 T0 : 04194710 `  POP_R : ldis   t1, SS:[rsp]'
0 T0 : 04194710 `  POP_R : addi   rsp, rsp, 0x8'
0 T0 : 04194710 `  POP_R : mov   rsi, rsi, t1'
0 T0 : 04194711 `  MOV_R_R : mov   rdx, rdx, rsp'
0 T0 : 04194714 `  AND_R_I : limm   t1, 0xfffffffffffffff0'
0 T0 : 04194714 `  AND_R_I : and   rsp, rsp, t1'
in iew sorted inst, get exe inst:8
in commit,getFromRename:8renamequeue:8in rename:
rename tick,before toIQ:21,toRob:13,storesInProgress:3
from IEW:dispatched:8 from commit:getfromrename:8
,dispatchedToSQ:0rename tick,after: toIQInProgress:13,toRobInProgress5storesInProgress:3

in iew ,inst_from_rename size:8
in iew 
0 T0 : 04194718 `  PUSH_R : stis   rax, SS:[rsp + 0xfffffffffffffff8]'
0 T0 : 04194718 `  PUSH_R : subi   rsp, rsp, 0x8'
0 T0 : 04194719 `  PUSH_R : stis   rsp, SS:[rsp + 0xfffffffffffffff8]'
0 T0 : 04194719 `  PUSH_R : subi   rsp, rsp, 0x8'
0 T0 : 04194720 `  MOV_R_I : limm   r8, 0x40a060'
0 T0 : 04194727 `  MOV_R_I : limm   rcx, 0x409ff0'
0 T0 : 04194734 `  MOV_R_I : limm   rdi, 0x400274'
0 T0 : 04194741 `  CALL_NEAR_I : limm   t1, 0x9846'
in iew sorted inst, get exe inst:8
in commit,getFromRename:5renamequeue:5in rename:
rename tick,before toIQ:13,toRob:5,storesInProgress:3
from IEW:dispatched:8 from commit:getfromrename:5
,dispatchedToSQ:2rename tick,after: toIQInProgress:5,toRobInProgress0storesInProgress:1

in iew ,inst_from_rename size:5
in iew 
0 T0 : 04194741 `  CALL_NEAR_I : rdip   t7, %ctrl153, '
0 T0 : 04194741 `  CALL_NEAR_I : stis   t7, SS:[rsp + 0xfffffffffffffff8]'
0 T0 : 04194741 `  CALL_NEAR_I : subi   rsp, rsp, 0x8'
0 T0 : 04194741 `  CALL_NEAR_I : wrip   , t7, t1'
0 T0 : 04194746 `  HLT : halt   '
in iew sorted inst, get exe inst:5
in commit,getFromRename:0renamequeue:0in rename:
rename tick,before toIQ:5,toRob:0,storesInProgress:1
from IEW:dispatched:5 from commit:getfromrename:0
,dispatchedToSQ:1rename tick,after: toIQInProgress:0,toRobInProgress0storesInProgress:0

in iew ,inst_from_rename size:0
in iew 
in iew sorted inst, get exe inst:0
commithead:: SN:1 val:0 T0 : 04194704 `  XOR_R_R : xor   rbp, rbp, rbp'
commithead:: SN:2 val:0 T0 : 04194707 `  MOV_R_R : mov   r9, r9, rdx'
in commit,getFromRename:0renamequeue:0in rename:
rename tick,before toIQ:0,toRob:0,storesInProgress:0
from IEW:dispatched:0 from commit:getfromrename:0
,dispatchedToSQ:0rename tick,after: toIQInProgress:0,toRobInProgress0storesInProgress:0

in iew ,inst_from_rename size:0
in iew 
in iew sorted inst, get exe inst:0
in commit,getFromRename:0renamequeue:0in rename:
rename tick,before toIQ:0,toRob:0,storesInProgress:0
from IEW:dispatched:0 from commit:getfromrename:0
,dispatchedToSQ:0rename tick,after: toIQInProgress:0,toRobInProgress0storesInProgress:0

in iew ,inst_from_rename size:0
in iew 
in iew sorted inst, get exe inst:0
in commit,getFromRename:0renamequeue:0in rename:
rename tick,before toIQ:0,toRob:0,storesInProgress:0
from IEW:dispatched:0 from commit:getfromrename:0
,dispatchedToSQ:0rename tick,after: toIQInProgress:0,toRobInProgress0storesInProgress:0

in iew ,inst_from_rename size:0
in iew 
in iew sorted inst, get exe inst:0
in commit,getFromRename:0renamequeue:0in rename:
rename tick,before toIQ:0,toRob:0,storesInProgress:0
from IEW:dispatched:0 from commit:getfromrename:0
,dispatchedToSQ:0rename tick,after: toIQInProgress:0,toRobInProgress0storesInProgress:0

in iew ,inst_from_rename size:0
in iew 
in iew sorted inst, get exe inst:0
in commit,getFromRename:0renamequeue:0in rename:
rename tick,before toIQ:0,toRob:0,storesInProgress:0
from IEW:dispatched:0 from commit:getfromrename:0
,dispatchedToSQ:0rename tick,after: toIQInProgress:0,toRobInProgress0storesInProgress:0

in iew ,inst_from_rename size:0
in iew 
in iew sorted inst, get exe inst:0
in commit,getFromRename:0renamequeue:0in rename:
rename tick,before toIQ:0,toRob:0,storesInProgress:0
from IEW:dispatched:0 from commit:getfromrename:0
,dispatchedToSQ:0rename tick,after: toIQInProgress:0,toRobInProgress0storesInProgress:0

in iew ,inst_from_rename size:0
in iew 
in iew sorted inst, get exe inst:0
in commit,getFromRename:0renamequeue:0in rename:
rename tick,before toIQ:0,toRob:0,storesInProgress:0
from IEW:dispatched:0 from commit:getfromrename:0
,dispatchedToSQ:0rename tick,after: toIQInProgress:0,toRobInProgress0storesInProgress:0

in iew ,inst_from_rename size:0
in iew 
in iew sorted inst, get exe inst:0
in commit,getFromRename:0renamequeue:0in rename:
rename tick,before toIQ:0,toRob:0,storesInProgress:0
from IEW:dispatched:0 from commit:getfromrename:0
,dispatchedToSQ:0rename tick,after: toIQInProgress:0,toRobInProgress0storesInProgress:0

in iew ,inst_from_rename size:0
in iew 
in iew sorted inst, get exe inst:0
in commit,getFromRename:0renamequeue:0in rename:
rename tick,before toIQ:0,toRob:0,storesInProgress:0
from IEW:dispatched:0 from commit:getfromrename:0
,dispatchedToSQ:0rename tick,after: toIQInProgress:0,toRobInProgress0storesInProgress:0

in iew ,inst_from_rename size:0
in iew 
in iew sorted inst, get exe inst:0
in commit,getFromRename:0renamequeue:0in rename:
rename tick,before toIQ:0,toRob:0,storesInProgress:0
from IEW:dispatched:0 from commit:getfromrename:0
,dispatchedToSQ:0rename tick,after: toIQInProgress:0,toRobInProgress0storesInProgress:0

in iew ,inst_from_rename size:0
in iew 
in iew sorted inst, get exe inst:0
in commit,getFromRename:0renamequeue:0in rename:
rename tick,before toIQ:0,toRob:0,storesInProgress:0
from IEW:dispatched:0 from commit:getfromrename:0
,dispatchedToSQ:0rename tick,after: toIQInProgress:0,toRobInProgress0storesInProgress:0

in iew ,inst_from_rename size:0
in iew 
in iew sorted inst, get exe inst:0
in commit,getFromRename:0renamequeue:0in rename:
rename tick,before toIQ:0,toRob:0,storesInProgress:0
from IEW:dispatched:0 from commit:getfromrename:0
,dispatchedToSQ:0rename tick,after: toIQInProgress:0,toRobInProgress0storesInProgress:0

in iew ,inst_from_rename size:0
in iew 
in iew sorted inst, get exe inst:0
in commit,getFromRename:0renamequeue:0in rename:
rename tick,before toIQ:0,toRob:0,storesInProgress:0
from IEW:dispatched:0 from commit:getfromrename:0
,dispatchedToSQ:0rename tick,after: toIQInProgress:0,toRobInProgress0storesInProgress:0

in iew ,inst_from_rename size:0
in iew 
in iew sorted inst, get exe inst:0
in commit,getFromRename:0renamequeue:0in rename:
rename tick,before toIQ:0,toRob:0,storesInProgress:0
from IEW:dispatched:0 from commit:getfromrename:0
,dispatchedToSQ:0rename tick,after: toIQInProgress:0,toRobInProgress0storesInProgress:0

in iew ,inst_from_rename size:0
in iew 
in iew sorted inst, get exe inst:0
in commit,getFromRename:0renamequeue:0in rename:
rename tick,before toIQ:0,toRob:0,storesInProgress:0
from IEW:dispatched:0 from commit:getfromrename:0
,dispatchedToSQ:0rename tick,after: toIQInProgress:0,toRobInProgress0storesInProgress:0

in iew ,inst_from_rename size:0
in iew 
in iew sorted inst, get exe inst:0
in commit,getFromRename:0renamequeue:0in rename:
rename tick,before toIQ:0,toRob:0,storesInProgress:0
from IEW:dispatched:0 from commit:getfromrename:0
,dispatchedToSQ:0rename tick,after: toIQInProgress:0,toRobInProgress0storesInProgress:0

in iew ,inst_from_rename size:0
in iew 
in iew sorted inst, get exe inst:0
commithead:: SN:3 val:1 T0 : 04194710 `  POP_R : ldis   t1, SS:[rsp]'
commithead:: SN:4 val:140737488350776 T0 : 04194710 `  POP_R : addi   rsp, rsp, 0x8'
in commit,getFromRename:0renamequeue:0in rename:
rename tick,before toIQ:0,toRob:0,storesInProgress:0
from IEW:dispatched:0 from commit:getfromrename:0
,dispatchedToSQ:0rename tick,after: toIQInProgress:0,toRobInProgress0storesInProgress:0

in iew ,inst_from_rename size:0
in iew 
in iew sorted inst, get exe inst:0
commithead:: SN:5 val:1 T0 : 04194710 `  POP_R : mov   rsi, rsi, t1'
commithead:: SN:6 val:140737488350776 T0 : 04194711 `  MOV_R_R : mov   rdx, rdx, rsp'
commithead:: SN:7 val:18446744073709551600 T0 : 04194714 `  AND_R_I : limm   t1, 0xfffffffffffffff0'
commithead:: SN:8 val:140737488350768 T0 : 04194714 `  AND_R_I : and   rsp, rsp, t1'
commithead:: SN:9 val:0 T0 : 04194718 `  PUSH_R : stis   rax, SS:[rsp + 0xfffffffffffffff8]'
commithead:: SN:10 val:140737488350760 T0 : 04194718 `  PUSH_R : subi   rsp, rsp, 0x8'
commithead:: SN:11 val:0 T0 : 04194719 `  PUSH_R : stis   rsp, SS:[rsp + 0xfffffffffffffff8]'
commithead:: SN:12 val:140737488350752 T0 : 04194719 `  PUSH_R : subi   rsp, rsp, 0x8'
in commit,getFromRename:0renamequeue:0in rename:
rename tick,before toIQ:0,toRob:0,storesInProgress:0
from IEW:dispatched:0 from commit:getfromrename:0
,dispatchedToSQ:0rename tick,after: toIQInProgress:0,toRobInProgress0storesInProgress:0

in iew ,inst_from_rename size:0
in iew 
in iew sorted inst, get exe inst:0
commithead:: SN:13 val:4235360 T0 : 04194720 `  MOV_R_I : limm   r8, 0x40a060'
commithead:: SN:14 val:4235248 T0 : 04194727 `  MOV_R_I : limm   rcx, 0x409ff0'
commithead:: SN:15 val:4194932 T0 : 04194734 `  MOV_R_I : limm   rdi, 0x400274'
commithead:: SN:16 val:38982 T0 : 04194741 `  CALL_NEAR_I : limm   t1, 0x9846'
commithead:: SN:17 val:4194746 T0 : 04194741 `  CALL_NEAR_I : rdip   t7, %ctrl153, '
commithead:: SN:18 val:0 T0 : 04194741 `  CALL_NEAR_I : stis   t7, SS:[rsp + 0xfffffffffffffff8]'
commithead:: SN:19 val:140737488350744 T0 : 04194741 `  CALL_NEAR_I : subi   rsp, rsp, 0x8'
commithead:: SN:20 val:0 T0 : 04194741 `  CALL_NEAR_I : wrip   , t7, t1'
in commit,getFromRename:0renamequeue:0in rename:
rename tick,before toIQ:0,toRob:0,storesInProgress:0
from IEW:dispatched:0 from commit:getfromrename:0
,dispatchedToSQ:0rename tick,after: toIQInProgress:0,toRobInProgress0storesInProgress:0

in iew ,inst_from_rename size:0
in iew 
in iew sorted inst, get exe inst:0
in commit,getFromRename:0renamequeue:0in rename:
rename tick,before toIQ:0,toRob:0,storesInProgress:0
from IEW:dispatched:0 from commit:getfromrename:0
,dispatchedToSQ:0rename tick,after: toIQInProgress:0,toRobInProgress0storesInProgress:0

in iew ,inst_from_rename size:0
in iew 
in iew sorted inst, get exe inst:0
in commit,getFromRename:0renamequeue:0in rename:
rename tick,before toIQ:0,toRob:0,storesInProgress:0
from IEW:dispatched:0 from commit:getfromrename:0
,dispatchedToSQ:0rename tick,after: toIQInProgress:0,toRobInProgress0storesInProgress:0

in iew ,inst_from_rename size:0
in iew 
in iew sorted inst, get exe inst:0
in commit,getFromRename:0renamequeue:0in rename:
rename tick,before toIQ:0,toRob:0,storesInProgress:0
from IEW:dispatched:0 from commit:getfromrename:0
,dispatchedToSQ:0rename tick,after: toIQInProgress:0,toRobInProgress0storesInProgress:0

in iew ,inst_from_rename size:0
in iew 
in iew sorted inst, get exe inst:0
in commit,getFromRename:0renamequeue:0in rename:
rename tick,before toIQ:0,toRob:0,storesInProgress:0
from IEW:dispatched:0 from commit:getfromrename:0
,dispatchedToSQ:0rename tick,after: toIQInProgress:0,toRobInProgress0storesInProgress:0

in iew ,inst_from_rename size:0
in iew 
in iew sorted inst, get exe inst:0
in commit,getFromRename:0renamequeue:0in rename:
rename tick,before toIQ:0,toRob:0,storesInProgress:0
from IEW:dispatched:0 from commit:getfromrename:0
,dispatchedToSQ:0rename tick,after: toIQInProgress:0,toRobInProgress0storesInProgress:0

in iew ,inst_from_rename size:0
in iew 
in iew sorted inst, get exe inst:0
in commit,getFromRename:0renamequeue:0in rename:
rename tick,before toIQ:0,toRob:0,storesInProgress:0
from IEW:dispatched:0 from commit:getfromrename:0
,dispatchedToSQ:0rename tick,after: toIQInProgress:0,toRobInProgress0storesInProgress:0

in iew ,inst_from_rename size:0
in iew 
in iew sorted inst, get exe inst:0
in commit,getFromRename:0renamequeue:0in rename:
rename tick,before toIQ:0,toRob:0,storesInProgress:0
from IEW:dispatched:0 from commit:getfromrename:0
,dispatchedToSQ:0rename tick,after: toIQInProgress:0,toRobInProgress0storesInProgress:0

in iew ,inst_from_rename size:0
in iew 
in iew sorted inst, get exe inst:0
in commit,getFromRename:0renamequeue:0in rename:
rename tick,before toIQ:0,toRob:0,storesInProgress:0
from IEW:dispatched:0 from commit:getfromrename:0
,dispatchedToSQ:0rename tick,after: toIQInProgress:0,toRobInProgress0storesInProgress:0

in iew ,inst_from_rename size:0
in iew 
in iew sorted inst, get exe inst:0
in commit,getFromRename:0renamequeue:0in rename:
rename tick,before toIQ:0,toRob:0,storesInProgress:0
from IEW:dispatched:0 from commit:getfromrename:0
,dispatchedToSQ:0rename tick,after: toIQInProgress:0,toRobInProgress0storesInProgress:0

in iew ,inst_from_rename size:0
in iew 
in iew sorted inst, get exe inst:0
in commit,getFromRename:0renamequeue:0in rename:
rename tick,before toIQ:0,toRob:0,storesInProgress:0
from IEW:dispatched:0 from commit:getfromrename:0
,dispatchedToSQ:0rename tick,after: toIQInProgress:0,toRobInProgress0storesInProgress:0

in iew ,inst_from_rename size:0
in iew 
in iew sorted inst, get exe inst:0
in commit,getFromRename:0renamequeue:0in rename:
rename tick,before toIQ:0,toRob:0,storesInProgress:0
from IEW:dispatched:0 from commit:getfromrename:0
,dispatchedToSQ:0rename tick,after: toIQInProgress:0,toRobInProgress0storesInProgress:0

in iew ,inst_from_rename size:0
in iew 
in iew sorted inst, get exe inst:0
in commit,getFromRename:0renamequeue:0in rename:
rename tick,before toIQ:0,toRob:0,storesInProgress:0
from IEW:dispatched:0 from commit:getfromrename:0
,dispatchedToSQ:0rename tick,after: toIQInProgress:0,toRobInProgress0storesInProgress:0

in iew ,inst_from_rename size:0
in iew 
in iew sorted inst, get exe inst:0
in commit,getFromRename:0renamequeue:0in rename:
rename tick,before toIQ:0,toRob:0,storesInProgress:0
from IEW:dispatched:0 from commit:getfromrename:0
,dispatchedToSQ:0rename tick,after: toIQInProgress:0,toRobInProgress0storesInProgress:0

in iew ,inst_from_rename size:0
in iew 
in iew sorted inst, get exe inst:0
in commit,getFromRename:0renamequeue:0in rename:
rename tick,before toIQ:0,toRob:0,storesInProgress:0
from IEW:dispatched:0 from commit:getfromrename:0
,dispatchedToSQ:0rename tick,after: toIQInProgress:0,toRobInProgress0storesInProgress:0

in iew ,inst_from_rename size:0
in iew 
in iew sorted inst, get exe inst:0
in commit,getFromRename:0renamequeue:0in rename:
to commit,commit size:1 iew size:0noNeedExe:1 T0 : 04233728 `  PUSH_R : stis   r15, SS:[rsp + 0xfffffffffffffff8]'
to commit,commit size:2 iew size:0noNeedExe:1 T0 : 04233728 `  PUSH_R : subi   rsp, rsp, 0x8'
to commit,commit size:3 iew size:0noNeedExe:1 T0 : 04233730 `  MOVSXD_R_R : sexti   rax, rsi, 0x1f'
to commit,commit size:4 iew size:0noNeedExe:1 T0 : 04233733 `  MOV_R_R : mov   r15, r15, r9'
SN26get source op[0] value is:0
SN26get source op[1] value is:0
SN26get source op[2] value is:0
to iew,commit size:4 iew size:1noNeedExe:0 T0 : 04233736 `  PUSH_R : stis   r14, SS:[rsp + 0xfffffffffffffff8]'
to commit,commit size:5 iew size:1noNeedExe:0 T0 : 04233736 `  PUSH_R : stis   r14, SS:[rsp + 0xfffffffffffffff8]'
SN27get source op[0] value is:0
to iew,commit size:5 iew size:2noNeedExe:0 T0 : 04233736 `  PUSH_R : subi   rsp, rsp, 0x8'
to commit,commit size:6 iew size:2noNeedExe:0 T0 : 04233736 `  PUSH_R : subi   rsp, rsp, 0x8'
SN28get source op[0] value is:0
SN28get source op[1] value is:0
SN28get source op[2] value is:0
to iew,commit size:6 iew size:3noNeedExe:0 T0 : 04233738 `  MOV_R_R : mov   r14, r14, rdx'
to commit,commit size:7 iew size:3noNeedExe:0 T0 : 04233738 `  MOV_R_R : mov   r14, r14, rdx'
SN29get source op[0] value is:0
SN29get source op[2] value is:0
to iew,commit size:7 iew size:4noNeedExe:0 T0 : 04233741 `  PUSH_R : stis   r13, SS:[rsp + 0xfffffffffffffff8]'
to commit,commit size:8 iew size:4noNeedExe:0 T0 : 04233741 `  PUSH_R : stis   r13, SS:[rsp + 0xfffffffffffffff8]'
rename tick,before toIQ:4,toRob:8,storesInProgress:2
from IEW:dispatched:0 from commit:getfromrename:0
,dispatchedToSQ:0rename tick,after: toIQInProgress:4,toRobInProgress8storesInProgress:2

in iew ,inst_from_rename size:0
in iew 
in iew sorted inst, get exe inst:0
in commit,getFromRename:0renamequeue:0in rename:
to commit,commit size:1 iew size:0noNeedExe:1 T0 : 04233741 `  PUSH_R : subi   rsp, rsp, 0x8'
to commit,commit size:2 iew size:0noNeedExe:1 T0 : 04233743 `  MOV_R_R : mov   r13d, r13d, esi'
to commit,commit size:3 iew size:0noNeedExe:1 T0 : 04233746 `  PUSH_R : stis   r12, SS:[rsp + 0xfffffffffffffff8]'
to commit,commit size:4 iew size:0noNeedExe:1 T0 : 04233746 `  PUSH_R : subi   rsp, rsp, 0x8'
SN34get source op[0] value is:0
SN34get source op[2] value is:0
to iew,commit size:4 iew size:1noNeedExe:0 T0 : 04233748 `  PUSH_R : stis   rbp, SS:[rsp + 0xfffffffffffffff8]'
to commit,commit size:5 iew size:1noNeedExe:0 T0 : 04233748 `  PUSH_R : stis   rbp, SS:[rsp + 0xfffffffffffffff8]'
to iew,commit size:5 iew size:2noNeedExe:0 T0 : 04233748 `  PUSH_R : subi   rsp, rsp, 0x8'
to commit,commit size:6 iew size:2noNeedExe:0 T0 : 04233748 `  PUSH_R : subi   rsp, rsp, 0x8'
SN36get source op[0] value is:0
SN36get source op[2] value is:0
to iew,commit size:6 iew size:3noNeedExe:0 T0 : 04233749 `  PUSH_R : stis   rbx, SS:[rsp + 0xfffffffffffffff8]'
to commit,commit size:7 iew size:3noNeedExe:0 T0 : 04233749 `  PUSH_R : stis   rbx, SS:[rsp + 0xfffffffffffffff8]'
to iew,commit size:7 iew size:4noNeedExe:0 T0 : 04233749 `  PUSH_R : subi   rsp, rsp, 0x8'
to commit,commit size:8 iew size:4noNeedExe:0 T0 : 04233749 `  PUSH_R : subi   rsp, rsp, 0x8'
rename tick,before toIQ:8,toRob:16,storesInProgress:4
from IEW:dispatched:0 from commit:getfromrename:0
,dispatchedToSQ:0rename tick,after: toIQInProgress:8,toRobInProgress16storesInProgress:4

in iew ,inst_from_rename size:0
in iew 
in iew sorted inst, get exe inst:0
in commit,getFromRename:8renamequeue:8in rename:
i am in wake up renamer instT0 : 04233728 `  PUSH_R : stis   r15, SS:[rsp + 0xfffffffffffffff8]'
SN22get source op[0] value is:0
SN22get source op[2] value is:0
0 T0 : 04233728 `  PUSH_R : stis   r15, SS:[rsp + 0xfffffffffffffff8]'
to commit,commit size:1 iew size:1noNeedExe:1 T0 : 04233750 `  SUB_R_I : limm   t1, 0x1f8'
to commit,commit size:2 iew size:1noNeedExe:1 T0 : 04233750 `  SUB_R_I : sub   rsp, rsp, t1'
to commit,commit size:3 iew size:1noNeedExe:1 T0 : 04233757 `  MOV_M_R : st   rdi, DS:[rsp + 0x18]'
to commit,commit size:4 iew size:1noNeedExe:1 T0 : 04233762 `  LEA_R_M : lea   rdi, DS:[8*rax + rdx + 0x8]'
to iew,commit size:4 iew size:2noNeedExe:0 T0 : 04233767 `  MOV_R_I : limm   eax, 0'
to commit,commit size:5 iew size:2noNeedExe:0 T0 : 04233767 `  MOV_R_I : limm   eax, 0'
SN43get source op[0] value is:0
SN43get source op[1] value is:0
to iew,commit size:5 iew size:3noNeedExe:0 T0 : 04233772 `  XOR_R_R : xor   edx, edx, edx'
to commit,commit size:6 iew size:3noNeedExe:0 T0 : 04233772 `  XOR_R_R : xor   edx, edx, edx'
to iew,commit size:6 iew size:4noNeedExe:0 T0 : 04233774 `  TEST_R_R : and   t0, rax, rax'
to commit,commit size:7 iew size:4noNeedExe:0 T0 : 04233774 `  TEST_R_R : and   t0, rax, rax'
SN45get source op[0] value is:0
SN45get source op[2] value is:0
to iew,commit size:7 iew size:5noNeedExe:0 T0 : 04233777 `  MOV_M_R : st   rcx, DS:[rsp + 0x10]'
to commit,commit size:8 iew size:5noNeedExe:0 T0 : 04233777 `  MOV_M_R : st   rcx, DS:[rsp + 0x10]'
rename tick,before toIQ:13,toRob:24,storesInProgress:6
from IEW:dispatched:0 from commit:getfromrename:8
,dispatchedToSQ:0rename tick,after: toIQInProgress:13,toRobInProgress16storesInProgress:6

in iew ,inst_from_rename size:4
in iew 
0 T0 : 04233736 `  PUSH_R : stis   r14, SS:[rsp + 0xfffffffffffffff8]'
0 T0 : 04233736 `  PUSH_R : subi   rsp, rsp, 0x8'
0 T0 : 04233738 `  MOV_R_R : mov   r14, r14, rdx'
0 T0 : 04233741 `  PUSH_R : stis   r13, SS:[rsp + 0xfffffffffffffff8]'
in iew sorted inst, get exe inst:4
in commit,getFromRename:8renamequeue:8in rename:
to commit,commit size:1 iew size:0noNeedExe:1 T0 : 04233782 `  MOV_M_R : st   r8, DS:[rsp + 0x8]'
to commit,commit size:2 iew size:0noNeedExe:1 T0 : 04233787 `  JZ_I : rdip   t1, %ctrl153, '
to commit,commit size:3 iew size:0noNeedExe:1 T0 : 04233787 `  JZ_I : limm   t2, 0x12'
to commit,commit size:4 iew size:0noNeedExe:1 T0 : 04233787 `  JZ_I : wrip   , t1, t2'
rename tick,before toIQ:13,toRob:20,storesInProgress:6
from IEW:dispatched:4 from commit:getfromrename:8
,dispatchedToSQ:2rename tick,after: toIQInProgress:9,toRobInProgress12storesInProgress:4

in iew ,inst_from_rename size:4
in iew 
0 T0 : 04233748 `  PUSH_R : stis   rbp, SS:[rsp + 0xfffffffffffffff8]'
0 T0 : 04233748 `  PUSH_R : subi   rsp, rsp, 0x8'
0 T0 : 04233749 `  PUSH_R : stis   rbx, SS:[rsp + 0xfffffffffffffff8]'
0 T0 : 04233749 `  PUSH_R : subi   rsp, rsp, 0x8'
in iew sorted inst, get exe inst:4
in commit,getFromRename:8renamequeue:8in rename:
rename tick,before toIQ:9,toRob:12,storesInProgress:4
from IEW:dispatched:4 from commit:getfromrename:8
,dispatchedToSQ:2rename tick,after: toIQInProgress:5,toRobInProgress4storesInProgress:2

in iew ,inst_from_rename size:5
in iew 
0 T0 : 04233728 `  PUSH_R : stis   r15, SS:[rsp + 0xfffffffffffffff8]'
0 T0 : 04233767 `  MOV_R_I : limm   eax, 0'
0 T0 : 04233772 `  XOR_R_R : xor   edx, edx, edx'
0 T0 : 04233774 `  TEST_R_R : and   t0, rax, rax'
0 T0 : 04233777 `  MOV_M_R : st   rcx, DS:[rsp + 0x10]'
in iew sorted inst, get exe inst:5
in commit,getFromRename:4renamequeue:4in rename:
rename tick,before toIQ:5,toRob:4,storesInProgress:2
from IEW:dispatched:5 from commit:getfromrename:4
,dispatchedToSQ:2rename tick,after: toIQInProgress:0,toRobInProgress0storesInProgress:0

in iew ,inst_from_rename size:0
in iew 
in iew sorted inst, get exe inst:0
in commit,getFromRename:0renamequeue:0in rename:
rename tick,before toIQ:0,toRob:0,storesInProgress:0
from IEW:dispatched:0 from commit:getfromrename:0
,dispatchedToSQ:0rename tick,after: toIQInProgress:0,toRobInProgress0storesInProgress:0

in iew ,inst_from_rename size:0
in iew 
in iew sorted inst, get exe inst:0
in commit,getFromRename:0renamequeue:0in rename:
rename tick,before toIQ:0,toRob:0,storesInProgress:0
from IEW:dispatched:0 from commit:getfromrename:0
,dispatchedToSQ:0rename tick,after: toIQInProgress:0,toRobInProgress0storesInProgress:0

in iew ,inst_from_rename size:0
in iew 
in iew sorted inst, get exe inst:0
in commit,getFromRename:0renamequeue:0in rename:
rename tick,before toIQ:0,toRob:0,storesInProgress:0
from IEW:dispatched:0 from commit:getfromrename:0
,dispatchedToSQ:0rename tick,after: toIQInProgress:0,toRobInProgress0storesInProgress:0

in iew ,inst_from_rename size:0
in iew 
in iew sorted inst, get exe inst:0
commithead:: SN:22 val:0 T0 : 04233728 `  PUSH_R : stis   r15, SS:[rsp + 0xfffffffffffffff8]'
in commit,getFromRename:0renamequeue:0in rename:
i am in wake up renamer instT0 : 04233728 `  PUSH_R : subi   rsp, rsp, 0x8'
SN23get source op[0] value is:0
0 T0 : 04233728 `  PUSH_R : subi   rsp, rsp, 0x8'
rename tick,before toIQ:1,toRob:0,storesInProgress:0
from IEW:dispatched:0 from commit:getfromrename:0
,dispatchedToSQ:0rename tick,after: toIQInProgress:1,toRobInProgress0storesInProgress:0

in iew ,inst_from_rename size:0
in iew 
in iew sorted inst, get exe inst:0
in commit,getFromRename:0renamequeue:0in rename:
rename tick,before toIQ:1,toRob:0,storesInProgress:0
from IEW:dispatched:0 from commit:getfromrename:0
,dispatchedToSQ:0rename tick,after: toIQInProgress:1,toRobInProgress0storesInProgress:0

in iew ,inst_from_rename size:0
in iew 
in iew sorted inst, get exe inst:0
in commit,getFromRename:0renamequeue:0in rename:
rename tick,before toIQ:1,toRob:0,storesInProgress:0
from IEW:dispatched:0 from commit:getfromrename:0
,dispatchedToSQ:0rename tick,after: toIQInProgress:1,toRobInProgress0storesInProgress:0

in iew ,inst_from_rename size:1
in iew 
0 T0 : 04233728 `  PUSH_R : subi   rsp, rsp, 0x8'
in iew sorted inst, get exe inst:1
in commit,getFromRename:0renamequeue:0in rename:
rename tick,before toIQ:1,toRob:0,storesInProgress:0
from IEW:dispatched:1 from commit:getfromrename:0
,dispatchedToSQ:0rename tick,after: toIQInProgress:0,toRobInProgress0storesInProgress:0

in iew ,inst_from_rename size:0
in iew 
in iew sorted inst, get exe inst:0
in commit,getFromRename:0renamequeue:0in rename:
rename tick,before toIQ:0,toRob:0,storesInProgress:0
from IEW:dispatched:0 from commit:getfromrename:0
,dispatchedToSQ:0rename tick,after: toIQInProgress:0,toRobInProgress0storesInProgress:0

in iew ,inst_from_rename size:0
in iew 
in iew sorted inst, get exe inst:0
in commit,getFromRename:0renamequeue:0in rename:
rename tick,before toIQ:0,toRob:0,storesInProgress:0
from IEW:dispatched:0 from commit:getfromrename:0
,dispatchedToSQ:0rename tick,after: toIQInProgress:0,toRobInProgress0storesInProgress:0

in iew ,inst_from_rename size:0
in iew 
in iew sorted inst, get exe inst:0
commithead:: SN:23 val:140737488350712 T0 : 04233728 `  PUSH_R : subi   rsp, rsp, 0x8'
in commit,getFromRename:0renamequeue:0in rename:
i am in wake up renamer instT0 : 04233730 `  MOVSXD_R_R : sexti   rax, rsi, 0x1f'
SN24get source op[0] value is:0
0 T0 : 04233730 `  MOVSXD_R_R : sexti   rax, rsi, 0x1f'
rename tick,before toIQ:1,toRob:0,storesInProgress:0
from IEW:dispatched:0 from commit:getfromrename:0
,dispatchedToSQ:0rename tick,after: toIQInProgress:1,toRobInProgress0storesInProgress:0

in iew ,inst_from_rename size:0
in iew 
in iew sorted inst, get exe inst:0
in commit,getFromRename:0renamequeue:0in rename:
rename tick,before toIQ:1,toRob:0,storesInProgress:0
from IEW:dispatched:0 from commit:getfromrename:0
,dispatchedToSQ:0rename tick,after: toIQInProgress:1,toRobInProgress0storesInProgress:0

in iew ,inst_from_rename size:0
in iew 
in iew sorted inst, get exe inst:0
in commit,getFromRename:0renamequeue:0in rename:
rename tick,before toIQ:1,toRob:0,storesInProgress:0
from IEW:dispatched:0 from commit:getfromrename:0
,dispatchedToSQ:0rename tick,after: toIQInProgress:1,toRobInProgress0storesInProgress:0

in iew ,inst_from_rename size:1
in iew 
0 T0 : 04233730 `  MOVSXD_R_R : sexti   rax, rsi, 0x1f'
in iew sorted inst, get exe inst:1
in commit,getFromRename:0renamequeue:0in rename:
rename tick,before toIQ:1,toRob:0,storesInProgress:0
from IEW:dispatched:1 from commit:getfromrename:0
,dispatchedToSQ:0rename tick,after: toIQInProgress:0,toRobInProgress0storesInProgress:0

in iew ,inst_from_rename size:0
in iew 
in iew sorted inst, get exe inst:0
in commit,getFromRename:0renamequeue:0in rename:
rename tick,before toIQ:0,toRob:0,storesInProgress:0
from IEW:dispatched:0 from commit:getfromrename:0
,dispatchedToSQ:0rename tick,after: toIQInProgress:0,toRobInProgress0storesInProgress:0

in iew ,inst_from_rename size:0
in iew 
in iew sorted inst, get exe inst:0
in commit,getFromRename:0renamequeue:0in rename:
rename tick,before toIQ:0,toRob:0,storesInProgress:0
from IEW:dispatched:0 from commit:getfromrename:0
,dispatchedToSQ:0rename tick,after: toIQInProgress:0,toRobInProgress0storesInProgress:0

in iew ,inst_from_rename size:0
in iew 
in iew sorted inst, get exe inst:0
commithead:: SN:24 val:1 T0 : 04233730 `  MOVSXD_R_R : sexti   rax, rsi, 0x1f'
in commit,getFromRename:0renamequeue:0in rename:
i am in wake up renamer instT0 : 04233733 `  MOV_R_R : mov   r15, r15, r9'
SN25get source op[0] value is:0
SN25get source op[1] value is:0
SN25get source op[2] value is:0
0 T0 : 04233733 `  MOV_R_R : mov   r15, r15, r9'
rename tick,before toIQ:1,toRob:0,storesInProgress:0
from IEW:dispatched:0 from commit:getfromrename:0
,dispatchedToSQ:0rename tick,after: toIQInProgress:1,toRobInProgress0storesInProgress:0

in iew ,inst_from_rename size:0
in iew 
in iew sorted inst, get exe inst:0
in commit,getFromRename:0renamequeue:0in rename:
rename tick,before toIQ:1,toRob:0,storesInProgress:0
from IEW:dispatched:0 from commit:getfromrename:0
,dispatchedToSQ:0rename tick,after: toIQInProgress:1,toRobInProgress0storesInProgress:0

in iew ,inst_from_rename size:0
in iew 
in iew sorted inst, get exe inst:0
in commit,getFromRename:0renamequeue:0in rename:
rename tick,before toIQ:1,toRob:0,storesInProgress:0
from IEW:dispatched:0 from commit:getfromrename:0
,dispatchedToSQ:0rename tick,after: toIQInProgress:1,toRobInProgress0storesInProgress:0

in iew ,inst_from_rename size:1
in iew 
0 T0 : 04233733 `  MOV_R_R : mov   r15, r15, r9'
in iew sorted inst, get exe inst:1
in commit,getFromRename:0renamequeue:0in rename:
rename tick,before toIQ:1,toRob:0,storesInProgress:0
from IEW:dispatched:1 from commit:getfromrename:0
,dispatchedToSQ:0rename tick,after: toIQInProgress:0,toRobInProgress0storesInProgress:0

in iew ,inst_from_rename size:0
in iew 
in iew sorted inst, get exe inst:0
in commit,getFromRename:0renamequeue:0in rename:
rename tick,before toIQ:0,toRob:0,storesInProgress:0
from IEW:dispatched:0 from commit:getfromrename:0
,dispatchedToSQ:0rename tick,after: toIQInProgress:0,toRobInProgress0storesInProgress:0

in iew ,inst_from_rename size:0
in iew 
in iew sorted inst, get exe inst:0
in commit,getFromRename:0renamequeue:0in rename:
rename tick,before toIQ:0,toRob:0,storesInProgress:0
from IEW:dispatched:0 from commit:getfromrename:0
,dispatchedToSQ:0rename tick,after: toIQInProgress:0,toRobInProgress0storesInProgress:0

in iew ,inst_from_rename size:0
in iew 
in iew sorted inst, get exe inst:0
commithead:: SN:25 val:0 T0 : 04233733 `  MOV_R_R : mov   r15, r15, r9'
commithead:: SN:26 val:0 T0 : 04233736 `  PUSH_R : stis   r14, SS:[rsp + 0xfffffffffffffff8]'
commithead:: SN:27 val:140737488350736 T0 : 04233736 `  PUSH_R : subi   rsp, rsp, 0x8'
commithead:: SN:28 val:140737488350776 T0 : 04233738 `  MOV_R_R : mov   r14, r14, rdx'
commithead:: SN:29 val:0 T0 : 04233741 `  PUSH_R : stis   r13, SS:[rsp + 0xfffffffffffffff8]'
in commit,getFromRename:0renamequeue:0in rename:
i am in wake up renamer instT0 : 04233741 `  PUSH_R : subi   rsp, rsp, 0x8'
SN30get source op[0] value is:0
0 T0 : 04233741 `  PUSH_R : subi   rsp, rsp, 0x8'
rename tick,before toIQ:1,toRob:0,storesInProgress:0
from IEW:dispatched:0 from commit:getfromrename:0
,dispatchedToSQ:0rename tick,after: toIQInProgress:1,toRobInProgress0storesInProgress:0

in iew ,inst_from_rename size:0
in iew 
in iew sorted inst, get exe inst:0
in commit,getFromRename:0renamequeue:0in rename:
rename tick,before toIQ:1,toRob:0,storesInProgress:0
from IEW:dispatched:0 from commit:getfromrename:0
,dispatchedToSQ:0rename tick,after: toIQInProgress:1,toRobInProgress0storesInProgress:0

in iew ,inst_from_rename size:0
in iew 
in iew sorted inst, get exe inst:0
in commit,getFromRename:0renamequeue:0in rename:
rename tick,before toIQ:1,toRob:0,storesInProgress:0
from IEW:dispatched:0 from commit:getfromrename:0
,dispatchedToSQ:0rename tick,after: toIQInProgress:1,toRobInProgress0storesInProgress:0

in iew ,inst_from_rename size:1
in iew 
0 T0 : 04233741 `  PUSH_R : subi   rsp, rsp, 0x8'
in iew sorted inst, get exe inst:1
in commit,getFromRename:0renamequeue:0in rename:
rename tick,before toIQ:1,toRob:0,storesInProgress:0
from IEW:dispatched:1 from commit:getfromrename:0
,dispatchedToSQ:0rename tick,after: toIQInProgress:0,toRobInProgress0storesInProgress:0

in iew ,inst_from_rename size:0
in iew 
in iew sorted inst, get exe inst:0
in commit,getFromRename:0renamequeue:0in rename:
rename tick,before toIQ:0,toRob:0,storesInProgress:0
from IEW:dispatched:0 from commit:getfromrename:0
,dispatchedToSQ:0rename tick,after: toIQInProgress:0,toRobInProgress0storesInProgress:0

in iew ,inst_from_rename size:0
in iew 
in iew sorted inst, get exe inst:0
in commit,getFromRename:0renamequeue:0in rename:
rename tick,before toIQ:0,toRob:0,storesInProgress:0
from IEW:dispatched:0 from commit:getfromrename:0
,dispatchedToSQ:0rename tick,after: toIQInProgress:0,toRobInProgress0storesInProgress:0

in iew ,inst_from_rename size:0
in iew 
in iew sorted inst, get exe inst:0
commithead:: SN:30 val:140737488350704 T0 : 04233741 `  PUSH_R : subi   rsp, rsp, 0x8'
in commit,getFromRename:0renamequeue:0in rename:
i am in wake up renamer instT0 : 04233743 `  MOV_R_R : mov   r13d, r13d, esi'
SN31get source op[0] value is:0
SN31get source op[1] value is:0
SN31get source op[2] value is:0
0 T0 : 04233743 `  MOV_R_R : mov   r13d, r13d, esi'
rename tick,before toIQ:1,toRob:0,storesInProgress:0
from IEW:dispatched:0 from commit:getfromrename:0
,dispatchedToSQ:0rename tick,after: toIQInProgress:1,toRobInProgress0storesInProgress:0

in iew ,inst_from_rename size:0
in iew 
in iew sorted inst, get exe inst:0
in commit,getFromRename:0renamequeue:0in rename:
rename tick,before toIQ:1,toRob:0,storesInProgress:0
from IEW:dispatched:0 from commit:getfromrename:0
,dispatchedToSQ:0rename tick,after: toIQInProgress:1,toRobInProgress0storesInProgress:0

in iew ,inst_from_rename size:0
in iew 
in iew sorted inst, get exe inst:0
in commit,getFromRename:0renamequeue:0in rename:
rename tick,before toIQ:1,toRob:0,storesInProgress:0
from IEW:dispatched:0 from commit:getfromrename:0
,dispatchedToSQ:0rename tick,after: toIQInProgress:1,toRobInProgress0storesInProgress:0

in iew ,inst_from_rename size:1
in iew 
0 T0 : 04233743 `  MOV_R_R : mov   r13d, r13d, esi'
in iew sorted inst, get exe inst:1
in commit,getFromRename:0renamequeue:0in rename:
rename tick,before toIQ:1,toRob:0,storesInProgress:0
from IEW:dispatched:1 from commit:getfromrename:0
,dispatchedToSQ:0rename tick,after: toIQInProgress:0,toRobInProgress0storesInProgress:0

in iew ,inst_from_rename size:0
in iew 
in iew sorted inst, get exe inst:0
in commit,getFromRename:0renamequeue:0in rename:
rename tick,before toIQ:0,toRob:0,storesInProgress:0
from IEW:dispatched:0 from commit:getfromrename:0
,dispatchedToSQ:0rename tick,after: toIQInProgress:0,toRobInProgress0storesInProgress:0

in iew ,inst_from_rename size:0
in iew 
in iew sorted inst, get exe inst:0
in commit,getFromRename:0renamequeue:0in rename:
rename tick,before toIQ:0,toRob:0,storesInProgress:0
from IEW:dispatched:0 from commit:getfromrename:0
,dispatchedToSQ:0rename tick,after: toIQInProgress:0,toRobInProgress0storesInProgress:0

in iew ,inst_from_rename size:0
in iew 
in iew sorted inst, get exe inst:0
commithead:: SN:31 val:1 T0 : 04233743 `  MOV_R_R : mov   r13d, r13d, esi'
in commit,getFromRename:0renamequeue:0in rename:
i am in wake up renamer instT0 : 04233746 `  PUSH_R : stis   r12, SS:[rsp + 0xfffffffffffffff8]'
SN32get source op[0] value is:0
SN32get source op[1] value is:0
SN32get source op[2] value is:0
0 T0 : 04233746 `  PUSH_R : stis   r12, SS:[rsp + 0xfffffffffffffff8]'
rename tick,before toIQ:1,toRob:0,storesInProgress:1
from IEW:dispatched:0 from commit:getfromrename:0
,dispatchedToSQ:0rename tick,after: toIQInProgress:1,toRobInProgress0storesInProgress:1

in iew ,inst_from_rename size:0
in iew 
in iew sorted inst, get exe inst:0
in commit,getFromRename:0renamequeue:0in rename:
rename tick,before toIQ:1,toRob:0,storesInProgress:1
from IEW:dispatched:0 from commit:getfromrename:0
,dispatchedToSQ:0rename tick,after: toIQInProgress:1,toRobInProgress0storesInProgress:1

in iew ,inst_from_rename size:0
in iew 
in iew sorted inst, get exe inst:0
in commit,getFromRename:0renamequeue:0in rename:
rename tick,before toIQ:1,toRob:0,storesInProgress:1
from IEW:dispatched:0 from commit:getfromrename:0
,dispatchedToSQ:0rename tick,after: toIQInProgress:1,toRobInProgress0storesInProgress:1

in iew ,inst_from_rename size:1
in iew 
0 T0 : 04233746 `  PUSH_R : stis   r12, SS:[rsp + 0xfffffffffffffff8]'
in iew sorted inst, get exe inst:1
in commit,getFromRename:0renamequeue:0in rename:
rename tick,before toIQ:1,toRob:0,storesInProgress:1
from IEW:dispatched:1 from commit:getfromrename:0
,dispatchedToSQ:1rename tick,after: toIQInProgress:0,toRobInProgress0storesInProgress:0

in iew ,inst_from_rename size:0
in iew 
in iew sorted inst, get exe inst:0
in commit,getFromRename:0renamequeue:0in rename:
rename tick,before toIQ:0,toRob:0,storesInProgress:0
from IEW:dispatched:0 from commit:getfromrename:0
,dispatchedToSQ:0rename tick,after: toIQInProgress:0,toRobInProgress0storesInProgress:0

in iew ,inst_from_rename size:0
in iew 
in iew sorted inst, get exe inst:0
in commit,getFromRename:0renamequeue:0in rename:
rename tick,before toIQ:0,toRob:0,storesInProgress:0
from IEW:dispatched:0 from commit:getfromrename:0
,dispatchedToSQ:0rename tick,after: toIQInProgress:0,toRobInProgress0storesInProgress:0

in iew ,inst_from_rename size:0
in iew 
in iew sorted inst, get exe inst:0
commithead:: SN:32 val:0 T0 : 04233746 `  PUSH_R : stis   r12, SS:[rsp + 0xfffffffffffffff8]'
in commit,getFromRename:0renamequeue:0in rename:
i am in wake up renamer instT0 : 04233746 `  PUSH_R : subi   rsp, rsp, 0x8'
SN33get source op[0] value is:0
0 T0 : 04233746 `  PUSH_R : subi   rsp, rsp, 0x8'
rename tick,before toIQ:1,toRob:0,storesInProgress:0
from IEW:dispatched:0 from commit:getfromrename:0
,dispatchedToSQ:0rename tick,after: toIQInProgress:1,toRobInProgress0storesInProgress:0

in iew ,inst_from_rename size:0
in iew 
in iew sorted inst, get exe inst:0
in commit,getFromRename:0renamequeue:0in rename:
rename tick,before toIQ:1,toRob:0,storesInProgress:0
from IEW:dispatched:0 from commit:getfromrename:0
,dispatchedToSQ:0rename tick,after: toIQInProgress:1,toRobInProgress0storesInProgress:0

in iew ,inst_from_rename size:0
in iew 
in iew sorted inst, get exe inst:0
in commit,getFromRename:0renamequeue:0in rename:
rename tick,before toIQ:1,toRob:0,storesInProgress:0
from IEW:dispatched:0 from commit:getfromrename:0
,dispatchedToSQ:0rename tick,after: toIQInProgress:1,toRobInProgress0storesInProgress:0

in iew ,inst_from_rename size:1
in iew 
0 T0 : 04233746 `  PUSH_R : subi   rsp, rsp, 0x8'
in iew sorted inst, get exe inst:1
in commit,getFromRename:0renamequeue:0in rename:
rename tick,before toIQ:1,toRob:0,storesInProgress:0
from IEW:dispatched:1 from commit:getfromrename:0
,dispatchedToSQ:0rename tick,after: toIQInProgress:0,toRobInProgress0storesInProgress:0

in iew ,inst_from_rename size:0
in iew 
in iew sorted inst, get exe inst:0
in commit,getFromRename:0renamequeue:0in rename:
rename tick,before toIQ:0,toRob:0,storesInProgress:0
from IEW:dispatched:0 from commit:getfromrename:0
,dispatchedToSQ:0rename tick,after: toIQInProgress:0,toRobInProgress0storesInProgress:0

in iew ,inst_from_rename size:0
in iew 
in iew sorted inst, get exe inst:0
in commit,getFromRename:0renamequeue:0in rename:
rename tick,before toIQ:0,toRob:0,storesInProgress:0
from IEW:dispatched:0 from commit:getfromrename:0
,dispatchedToSQ:0rename tick,after: toIQInProgress:0,toRobInProgress0storesInProgress:0

in iew ,inst_from_rename size:0
in iew 
in iew sorted inst, get exe inst:0
commithead:: SN:33 val:140737488350696 T0 : 04233746 `  PUSH_R : subi   rsp, rsp, 0x8'
commithead:: SN:34 val:0 T0 : 04233748 `  PUSH_R : stis   rbp, SS:[rsp + 0xfffffffffffffff8]'
commithead:: SN:35 val:140737488350728 T0 : 04233748 `  PUSH_R : subi   rsp, rsp, 0x8'
commithead:: SN:36 val:0 T0 : 04233749 `  PUSH_R : stis   rbx, SS:[rsp + 0xfffffffffffffff8]'
commithead:: SN:37 val:140737488350720 T0 : 04233749 `  PUSH_R : subi   rsp, rsp, 0x8'
in commit,getFromRename:0renamequeue:0in rename:
i am in wake up renamer instT0 : 04233750 `  SUB_R_I : limm   t1, 0x1f8'
0 T0 : 04233750 `  SUB_R_I : limm   t1, 0x1f8'
rename tick,before toIQ:1,toRob:0,storesInProgress:0
from IEW:dispatched:0 from commit:getfromrename:0
,dispatchedToSQ:0rename tick,after: toIQInProgress:1,toRobInProgress0storesInProgress:0

in iew ,inst_from_rename size:0
in iew 
in iew sorted inst, get exe inst:0
in commit,getFromRename:0renamequeue:0in rename:
rename tick,before toIQ:1,toRob:0,storesInProgress:0
from IEW:dispatched:0 from commit:getfromrename:0
,dispatchedToSQ:0rename tick,after: toIQInProgress:1,toRobInProgress0storesInProgress:0

in iew ,inst_from_rename size:0
in iew 
in iew sorted inst, get exe inst:0
in commit,getFromRename:0renamequeue:0in rename:
rename tick,before toIQ:1,toRob:0,storesInProgress:0
from IEW:dispatched:0 from commit:getfromrename:0
,dispatchedToSQ:0rename tick,after: toIQInProgress:1,toRobInProgress0storesInProgress:0

in iew ,inst_from_rename size:1
in iew 
0 T0 : 04233750 `  SUB_R_I : limm   t1, 0x1f8'
in iew sorted inst, get exe inst:1
in commit,getFromRename:0renamequeue:0in rename:
rename tick,before toIQ:1,toRob:0,storesInProgress:0
from IEW:dispatched:1 from commit:getfromrename:0
,dispatchedToSQ:0rename tick,after: toIQInProgress:0,toRobInProgress0storesInProgress:0

in iew ,inst_from_rename size:0
in iew 
in iew sorted inst, get exe inst:0
in commit,getFromRename:0renamequeue:0in rename:
rename tick,before toIQ:0,toRob:0,storesInProgress:0
from IEW:dispatched:0 from commit:getfromrename:0
,dispatchedToSQ:0rename tick,after: toIQInProgress:0,toRobInProgress0storesInProgress:0

in iew ,inst_from_rename size:0
in iew 
in iew sorted inst, get exe inst:0
in commit,getFromRename:0renamequeue:0in rename:
rename tick,before toIQ:0,toRob:0,storesInProgress:0
from IEW:dispatched:0 from commit:getfromrename:0
,dispatchedToSQ:0rename tick,after: toIQInProgress:0,toRobInProgress0storesInProgress:0

in iew ,inst_from_rename size:0
in iew 
in iew sorted inst, get exe inst:0
commithead:: SN:38 val:504 T0 : 04233750 `  SUB_R_I : limm   t1, 0x1f8'
in commit,getFromRename:0renamequeue:0in rename:
i am in wake up renamer instT0 : 04233750 `  SUB_R_I : sub   rsp, rsp, t1'
SN39get source op[0] value is:0
SN39get source op[1] value is:0
0 T0 : 04233750 `  SUB_R_I : sub   rsp, rsp, t1'
rename tick,before toIQ:1,toRob:0,storesInProgress:0
from IEW:dispatched:0 from commit:getfromrename:0
,dispatchedToSQ:0rename tick,after: toIQInProgress:1,toRobInProgress0storesInProgress:0

in iew ,inst_from_rename size:0
in iew 
in iew sorted inst, get exe inst:0
in commit,getFromRename:0renamequeue:0in rename:
rename tick,before toIQ:1,toRob:0,storesInProgress:0
from IEW:dispatched:0 from commit:getfromrename:0
,dispatchedToSQ:0rename tick,after: toIQInProgress:1,toRobInProgress0storesInProgress:0

in iew ,inst_from_rename size:0
in iew 
in iew sorted inst, get exe inst:0
in commit,getFromRename:0renamequeue:0in rename:
rename tick,before toIQ:1,toRob:0,storesInProgress:0
from IEW:dispatched:0 from commit:getfromrename:0
,dispatchedToSQ:0rename tick,after: toIQInProgress:1,toRobInProgress0storesInProgress:0

in iew ,inst_from_rename size:1
in iew 
0 T0 : 04233750 `  SUB_R_I : sub   rsp, rsp, t1'
in iew sorted inst, get exe inst:1
in commit,getFromRename:0renamequeue:0in rename:
rename tick,before toIQ:1,toRob:0,storesInProgress:0
from IEW:dispatched:1 from commit:getfromrename:0
,dispatchedToSQ:0rename tick,after: toIQInProgress:0,toRobInProgress0storesInProgress:0

in iew ,inst_from_rename size:0
in iew 
in iew sorted inst, get exe inst:0
in commit,getFromRename:0renamequeue:0in rename:
rename tick,before toIQ:0,toRob:0,storesInProgress:0
from IEW:dispatched:0 from commit:getfromrename:0
,dispatchedToSQ:0rename tick,after: toIQInProgress:0,toRobInProgress0storesInProgress:0

in iew ,inst_from_rename size:0
in iew 
in iew sorted inst, get exe inst:0
in commit,getFromRename:0renamequeue:0in rename:
rename tick,before toIQ:0,toRob:0,storesInProgress:0
from IEW:dispatched:0 from commit:getfromrename:0
,dispatchedToSQ:0rename tick,after: toIQInProgress:0,toRobInProgress0storesInProgress:0

in iew ,inst_from_rename size:0
in iew 
in iew sorted inst, get exe inst:0
commithead:: SN:39 val:140737488350192 T0 : 04233750 `  SUB_R_I : sub   rsp, rsp, t1'
in commit,getFromRename:0renamequeue:0in rename:
i am in wake up renamer instT0 : 04233757 `  MOV_M_R : st   rdi, DS:[rsp + 0x18]'
SN40get source op[0] value is:0
SN40get source op[1] value is:0
SN40get source op[2] value is:0
0 T0 : 04233757 `  MOV_M_R : st   rdi, DS:[rsp + 0x18]'
rename tick,before toIQ:1,toRob:0,storesInProgress:1
from IEW:dispatched:0 from commit:getfromrename:0
,dispatchedToSQ:0rename tick,after: toIQInProgress:1,toRobInProgress0storesInProgress:1

in iew ,inst_from_rename size:0
in iew 
in iew sorted inst, get exe inst:0
in commit,getFromRename:0renamequeue:0in rename:
rename tick,before toIQ:1,toRob:0,storesInProgress:1
from IEW:dispatched:0 from commit:getfromrename:0
,dispatchedToSQ:0rename tick,after: toIQInProgress:1,toRobInProgress0storesInProgress:1

in iew ,inst_from_rename size:0
in iew 
in iew sorted inst, get exe inst:0
in commit,getFromRename:0renamequeue:0in rename:
rename tick,before toIQ:1,toRob:0,storesInProgress:1
from IEW:dispatched:0 from commit:getfromrename:0
,dispatchedToSQ:0rename tick,after: toIQInProgress:1,toRobInProgress0storesInProgress:1

in iew ,inst_from_rename size:1
in iew 
0 T0 : 04233757 `  MOV_M_R : st   rdi, DS:[rsp + 0x18]'
in iew sorted inst, get exe inst:1
in commit,getFromRename:0renamequeue:0in rename:
rename tick,before toIQ:1,toRob:0,storesInProgress:1
from IEW:dispatched:1 from commit:getfromrename:0
,dispatchedToSQ:1rename tick,after: toIQInProgress:0,toRobInProgress0storesInProgress:0

in iew ,inst_from_rename size:0
in iew 
in iew sorted inst, get exe inst:0
in commit,getFromRename:0renamequeue:0in rename:
rename tick,before toIQ:0,toRob:0,storesInProgress:0
from IEW:dispatched:0 from commit:getfromrename:0
,dispatchedToSQ:0rename tick,after: toIQInProgress:0,toRobInProgress0storesInProgress:0

in iew ,inst_from_rename size:0
in iew 
in iew sorted inst, get exe inst:0
in commit,getFromRename:0renamequeue:0in rename:
rename tick,before toIQ:0,toRob:0,storesInProgress:0
from IEW:dispatched:0 from commit:getfromrename:0
,dispatchedToSQ:0rename tick,after: toIQInProgress:0,toRobInProgress0storesInProgress:0

in iew ,inst_from_rename size:0
in iew 
in iew sorted inst, get exe inst:0
commithead:: SN:40 val:0 T0 : 04233757 `  MOV_M_R : st   rdi, DS:[rsp + 0x18]'
in commit,getFromRename:0renamequeue:0in rename:
i am in wake up renamer instT0 : 04233762 `  LEA_R_M : lea   rdi, DS:[8*rax + rdx + 0x8]'
SN41get source op[0] value is:0
SN41get source op[1] value is:0
SN41get source op[2] value is:0
0 T0 : 04233762 `  LEA_R_M : lea   rdi, DS:[8*rax + rdx + 0x8]'
rename tick,before toIQ:1,toRob:0,storesInProgress:0
from IEW:dispatched:0 from commit:getfromrename:0
,dispatchedToSQ:0rename tick,after: toIQInProgress:1,toRobInProgress0storesInProgress:0

in iew ,inst_from_rename size:0
in iew 
in iew sorted inst, get exe inst:0
in commit,getFromRename:0renamequeue:0in rename:
rename tick,before toIQ:1,toRob:0,storesInProgress:0
from IEW:dispatched:0 from commit:getfromrename:0
,dispatchedToSQ:0rename tick,after: toIQInProgress:1,toRobInProgress0storesInProgress:0

in iew ,inst_from_rename size:0
in iew 
in iew sorted inst, get exe inst:0
in commit,getFromRename:0renamequeue:0in rename:
rename tick,before toIQ:1,toRob:0,storesInProgress:0
from IEW:dispatched:0 from commit:getfromrename:0
,dispatchedToSQ:0rename tick,after: toIQInProgress:1,toRobInProgress0storesInProgress:0

in iew ,inst_from_rename size:1
in iew 
0 T0 : 04233762 `  LEA_R_M : lea   rdi, DS:[8*rax + rdx + 0x8]'
in iew sorted inst, get exe inst:1
in commit,getFromRename:0renamequeue:0in rename:
rename tick,before toIQ:1,toRob:0,storesInProgress:0
from IEW:dispatched:1 from commit:getfromrename:0
,dispatchedToSQ:0rename tick,after: toIQInProgress:0,toRobInProgress0storesInProgress:0

in iew ,inst_from_rename size:0
in iew 
in iew sorted inst, get exe inst:0
in commit,getFromRename:0renamequeue:0in rename:
rename tick,before toIQ:0,toRob:0,storesInProgress:0
from IEW:dispatched:0 from commit:getfromrename:0
,dispatchedToSQ:0rename tick,after: toIQInProgress:0,toRobInProgress0storesInProgress:0

in iew ,inst_from_rename size:0
in iew 
in iew sorted inst, get exe inst:0
in commit,getFromRename:0renamequeue:0in rename:
rename tick,before toIQ:0,toRob:0,storesInProgress:0
from IEW:dispatched:0 from commit:getfromrename:0
,dispatchedToSQ:0rename tick,after: toIQInProgress:0,toRobInProgress0storesInProgress:0

in iew ,inst_from_rename size:0
in iew 
in iew sorted inst, get exe inst:0
commithead:: SN:41 val:16 T0 : 04233762 `  LEA_R_M : lea   rdi, DS:[8*rax + rdx + 0x8]'
commithead:: SN:42 val:0 T0 : 04233767 `  MOV_R_I : limm   eax, 0'
commithead:: SN:43 val:0 T0 : 04233772 `  XOR_R_R : xor   edx, edx, edx'
commithead:: SN:44 val:0 T0 : 04233774 `  TEST_R_R : and   t0, rax, rax'
commithead:: SN:45 val:0 T0 : 04233777 `  MOV_M_R : st   rcx, DS:[rsp + 0x10]'
in commit,getFromRename:0renamequeue:0in rename:
i am in wake up renamer instT0 : 04233782 `  MOV_M_R : st   r8, DS:[rsp + 0x8]'
SN46get source op[0] value is:0
SN46get source op[1] value is:0
SN46get source op[2] value is:0
0 T0 : 04233782 `  MOV_M_R : st   r8, DS:[rsp + 0x8]'
rename tick,before toIQ:1,toRob:0,storesInProgress:1
from IEW:dispatched:0 from commit:getfromrename:0
,dispatchedToSQ:0rename tick,after: toIQInProgress:1,toRobInProgress0storesInProgress:1

in iew ,inst_from_rename size:0
in iew 
in iew sorted inst, get exe inst:0
in commit,getFromRename:0renamequeue:0in rename:
rename tick,before toIQ:1,toRob:0,storesInProgress:1
from IEW:dispatched:0 from commit:getfromrename:0
,dispatchedToSQ:0rename tick,after: toIQInProgress:1,toRobInProgress0storesInProgress:1

in iew ,inst_from_rename size:0
in iew 
in iew sorted inst, get exe inst:0
in commit,getFromRename:0renamequeue:0in rename:
rename tick,before toIQ:1,toRob:0,storesInProgress:1
from IEW:dispatched:0 from commit:getfromrename:0
,dispatchedToSQ:0rename tick,after: toIQInProgress:1,toRobInProgress0storesInProgress:1

in iew ,inst_from_rename size:1
in iew 
0 T0 : 04233782 `  MOV_M_R : st   r8, DS:[rsp + 0x8]'
in iew sorted inst, get exe inst:1
in commit,getFromRename:0renamequeue:0in rename:
rename tick,before toIQ:1,toRob:0,storesInProgress:1
from IEW:dispatched:1 from commit:getfromrename:0
,dispatchedToSQ:1rename tick,after: toIQInProgress:0,toRobInProgress0storesInProgress:0

in iew ,inst_from_rename size:0
in iew 
in iew sorted inst, get exe inst:0
in commit,getFromRename:0renamequeue:0in rename:
rename tick,before toIQ:0,toRob:0,storesInProgress:0
from IEW:dispatched:0 from commit:getfromrename:0
,dispatchedToSQ:0rename tick,after: toIQInProgress:0,toRobInProgress0storesInProgress:0

in iew ,inst_from_rename size:0
in iew 
in iew sorted inst, get exe inst:0
in commit,getFromRename:0renamequeue:0in rename:
rename tick,before toIQ:0,toRob:0,storesInProgress:0
from IEW:dispatched:0 from commit:getfromrename:0
,dispatchedToSQ:0rename tick,after: toIQInProgress:0,toRobInProgress0storesInProgress:0

in iew ,inst_from_rename size:0
in iew 
in iew sorted inst, get exe inst:0
commithead:: SN:46 val:0 T0 : 04233782 `  MOV_M_R : st   r8, DS:[rsp + 0x8]'
in commit,getFromRename:0renamequeue:0in rename:
i am in wake up renamer instT0 : 04233787 `  JZ_I : rdip   t1, %ctrl153, '
0 T0 : 04233787 `  JZ_I : rdip   t1, %ctrl153, '
rename tick,before toIQ:1,toRob:0,storesInProgress:0
from IEW:dispatched:0 from commit:getfromrename:0
,dispatchedToSQ:0rename tick,after: toIQInProgress:1,toRobInProgress0storesInProgress:0

in iew ,inst_from_rename size:0
in iew 
in iew sorted inst, get exe inst:0
in commit,getFromRename:0renamequeue:0in rename:
rename tick,before toIQ:1,toRob:0,storesInProgress:0
from IEW:dispatched:0 from commit:getfromrename:0
,dispatchedToSQ:0rename tick,after: toIQInProgress:1,toRobInProgress0storesInProgress:0

in iew ,inst_from_rename size:0
in iew 
in iew sorted inst, get exe inst:0
in commit,getFromRename:0renamequeue:0in rename:
rename tick,before toIQ:1,toRob:0,storesInProgress:0
from IEW:dispatched:0 from commit:getfromrename:0
,dispatchedToSQ:0rename tick,after: toIQInProgress:1,toRobInProgress0storesInProgress:0

in iew ,inst_from_rename size:1
in iew 
0 T0 : 04233787 `  JZ_I : rdip   t1, %ctrl153, '
in iew sorted inst, get exe inst:1
in commit,getFromRename:0renamequeue:0in rename:
rename tick,before toIQ:1,toRob:0,storesInProgress:0
from IEW:dispatched:1 from commit:getfromrename:0
,dispatchedToSQ:0rename tick,after: toIQInProgress:0,toRobInProgress0storesInProgress:0

in iew ,inst_from_rename size:0
in iew 
in iew sorted inst, get exe inst:0
in commit,getFromRename:0renamequeue:0in rename:
rename tick,before toIQ:0,toRob:0,storesInProgress:0
from IEW:dispatched:0 from commit:getfromrename:0
,dispatchedToSQ:0rename tick,after: toIQInProgress:0,toRobInProgress0storesInProgress:0

in iew ,inst_from_rename size:0
in iew 
in iew sorted inst, get exe inst:0
in commit,getFromRename:0renamequeue:0in rename:
rename tick,before toIQ:0,toRob:0,storesInProgress:0
from IEW:dispatched:0 from commit:getfromrename:0
,dispatchedToSQ:0rename tick,after: toIQInProgress:0,toRobInProgress0storesInProgress:0

in iew ,inst_from_rename size:0
in iew 
in iew sorted inst, get exe inst:0
commithead:: SN:47 val:4233789 T0 : 04233787 `  JZ_I : rdip   t1, %ctrl153, '
in commit,getFromRename:0renamequeue:0in rename:
i am in wake up renamer instT0 : 04233787 `  JZ_I : limm   t2, 0x12'
0 T0 : 04233787 `  JZ_I : limm   t2, 0x12'
rename tick,before toIQ:1,toRob:0,storesInProgress:0
from IEW:dispatched:0 from commit:getfromrename:0
,dispatchedToSQ:0rename tick,after: toIQInProgress:1,toRobInProgress0storesInProgress:0

in iew ,inst_from_rename size:0
in iew 
in iew sorted inst, get exe inst:0
in commit,getFromRename:0renamequeue:0in rename:
rename tick,before toIQ:1,toRob:0,storesInProgress:0
from IEW:dispatched:0 from commit:getfromrename:0
,dispatchedToSQ:0rename tick,after: toIQInProgress:1,toRobInProgress0storesInProgress:0

in iew ,inst_from_rename size:0
in iew 
in iew sorted inst, get exe inst:0
in commit,getFromRename:0renamequeue:0in rename:
rename tick,before toIQ:1,toRob:0,storesInProgress:0
from IEW:dispatched:0 from commit:getfromrename:0
,dispatchedToSQ:0rename tick,after: toIQInProgress:1,toRobInProgress0storesInProgress:0

in iew ,inst_from_rename size:1
in iew 
0 T0 : 04233787 `  JZ_I : limm   t2, 0x12'
in iew sorted inst, get exe inst:1
in commit,getFromRename:0renamequeue:0in rename:
rename tick,before toIQ:1,toRob:0,storesInProgress:0
from IEW:dispatched:1 from commit:getfromrename:0
,dispatchedToSQ:0rename tick,after: toIQInProgress:0,toRobInProgress0storesInProgress:0

in iew ,inst_from_rename size:0
in iew 
in iew sorted inst, get exe inst:0
in commit,getFromRename:0renamequeue:0in rename:
rename tick,before toIQ:0,toRob:0,storesInProgress:0
from IEW:dispatched:0 from commit:getfromrename:0
,dispatchedToSQ:0rename tick,after: toIQInProgress:0,toRobInProgress0storesInProgress:0

in iew ,inst_from_rename size:0
in iew 
in iew sorted inst, get exe inst:0
in commit,getFromRename:0renamequeue:0in rename:
rename tick,before toIQ:0,toRob:0,storesInProgress:0
from IEW:dispatched:0 from commit:getfromrename:0
,dispatchedToSQ:0rename tick,after: toIQInProgress:0,toRobInProgress0storesInProgress:0

in iew ,inst_from_rename size:0
in iew 
in iew sorted inst, get exe inst:0
commithead:: SN:48 val:18 T0 : 04233787 `  JZ_I : limm   t2, 0x12'
in commit,getFromRename:0renamequeue:0in rename:
i am in wake up renamer instT0 : 04233787 `  JZ_I : wrip   , t1, t2'
SN49get source op[0] value is:0
SN49get source op[1] value is:0
0 T0 : 04233787 `  JZ_I : wrip   , t1, t2'
rename tick,before toIQ:1,toRob:0,storesInProgress:0
from IEW:dispatched:0 from commit:getfromrename:0
,dispatchedToSQ:0rename tick,after: toIQInProgress:1,toRobInProgress0storesInProgress:0

in iew ,inst_from_rename size:0
in iew 
in iew sorted inst, get exe inst:0
in commit,getFromRename:0renamequeue:0in rename:
rename tick,before toIQ:1,toRob:0,storesInProgress:0
from IEW:dispatched:0 from commit:getfromrename:0
,dispatchedToSQ:0rename tick,after: toIQInProgress:1,toRobInProgress0storesInProgress:0

in iew ,inst_from_rename size:0
in iew 
in iew sorted inst, get exe inst:0
in commit,getFromRename:0renamequeue:0in rename:
rename tick,before toIQ:1,toRob:0,storesInProgress:0
from IEW:dispatched:0 from commit:getfromrename:0
,dispatchedToSQ:0rename tick,after: toIQInProgress:1,toRobInProgress0storesInProgress:0

in iew ,inst_from_rename size:1
in iew 
0 T0 : 04233787 `  JZ_I : wrip   , t1, t2'
in iew sorted inst, get exe inst:1
in commit,getFromRename:0renamequeue:0in rename:
rename tick,before toIQ:1,toRob:0,storesInProgress:0
from IEW:dispatched:1 from commit:getfromrename:0
,dispatchedToSQ:0rename tick,after: toIQInProgress:0,toRobInProgress0storesInProgress:0

in iew ,inst_from_rename size:0
in iew 
in iew sorted inst, get exe inst:0
in commit,getFromRename:0renamequeue:0in rename:
rename tick,before toIQ:0,toRob:0,storesInProgress:0
from IEW:dispatched:0 from commit:getfromrename:0
,dispatchedToSQ:0rename tick,after: toIQInProgress:0,toRobInProgress0storesInProgress:0

in iew ,inst_from_rename size:0
in iew 
in iew sorted inst, get exe inst:0
in commit,getFromRename:0renamequeue:0in rename:
rename tick,before toIQ:0,toRob:0,storesInProgress:0
from IEW:dispatched:0 from commit:getfromrename:0
,dispatchedToSQ:0rename tick,after: toIQInProgress:0,toRobInProgress0storesInProgress:0

in iew ,inst_from_rename size:0
in iew 
in iew sorted inst, get exe inst:0
commithead:: SN:49 val:0 T0 : 04233787 `  JZ_I : wrip   , t1, t2'
in commit,getFromRename:0renamequeue:0in rename:
rename tick,before toIQ:0,toRob:0,storesInProgress:0
from IEW:dispatched:0 from commit:getfromrename:0
,dispatchedToSQ:0rename tick,after: toIQInProgress:0,toRobInProgress0storesInProgress:0

in iew ,inst_from_rename size:0
in iew 
in iew sorted inst, get exe inst:0
in commit,getFromRename:0renamequeue:0in rename:
rename tick,before toIQ:0,toRob:0,storesInProgress:0
from IEW:dispatched:0 from commit:getfromrename:0
,dispatchedToSQ:0rename tick,after: toIQInProgress:0,toRobInProgress0storesInProgress:0

in iew ,inst_from_rename size:0
in iew 
in iew sorted inst, get exe inst:0
in commit,getFromRename:0renamequeue:0in rename:
rename tick,before toIQ:0,toRob:0,storesInProgress:0
from IEW:dispatched:0 from commit:getfromrename:0
,dispatchedToSQ:0rename tick,after: toIQInProgress:0,toRobInProgress0storesInProgress:0

in iew ,inst_from_rename size:0
in iew 
in iew sorted inst, get exe inst:0
in commit,getFromRename:0renamequeue:0in rename:
rename tick,before toIQ:0,toRob:0,storesInProgress:0
from IEW:dispatched:0 from commit:getfromrename:0
,dispatchedToSQ:0rename tick,after: toIQInProgress:0,toRobInProgress0storesInProgress:0

in iew ,inst_from_rename size:0
in iew 
in iew sorted inst, get exe inst:0
in commit,getFromRename:0renamequeue:0in rename:
rename tick,before toIQ:0,toRob:0,storesInProgress:0
from IEW:dispatched:0 from commit:getfromrename:0
,dispatchedToSQ:0rename tick,after: toIQInProgress:0,toRobInProgress0storesInProgress:0

in iew ,inst_from_rename size:0
in iew 
in iew sorted inst, get exe inst:0
in commit,getFromRename:0renamequeue:0in rename:
rename tick,before toIQ:0,toRob:0,storesInProgress:0
from IEW:dispatched:0 from commit:getfromrename:0
,dispatchedToSQ:0rename tick,after: toIQInProgress:0,toRobInProgress0storesInProgress:0

in iew ,inst_from_rename size:0
in iew 
in iew sorted inst, get exe inst:0
in commit,getFromRename:0renamequeue:0in rename:
rename tick,before toIQ:0,toRob:0,storesInProgress:0
from IEW:dispatched:0 from commit:getfromrename:0
,dispatchedToSQ:0rename tick,after: toIQInProgress:0,toRobInProgress0storesInProgress:0

in iew ,inst_from_rename size:0
in iew 
in iew sorted inst, get exe inst:0
in commit,getFromRename:0renamequeue:0in rename:
rename tick,before toIQ:0,toRob:0,storesInProgress:0
from IEW:dispatched:0 from commit:getfromrename:0
,dispatchedToSQ:0rename tick,after: toIQInProgress:0,toRobInProgress0storesInProgress:0

in iew ,inst_from_rename size:0
in iew 
in iew sorted inst, get exe inst:0
in commit,getFromRename:0renamequeue:0in rename:
rename tick,before toIQ:0,toRob:0,storesInProgress:0
from IEW:dispatched:0 from commit:getfromrename:0
,dispatchedToSQ:0rename tick,after: toIQInProgress:0,toRobInProgress0storesInProgress:0

in iew ,inst_from_rename size:0
in iew 
in iew sorted inst, get exe inst:0
in commit,getFromRename:0renamequeue:0in rename:
rename tick,before toIQ:0,toRob:0,storesInProgress:0
from IEW:dispatched:0 from commit:getfromrename:0
,dispatchedToSQ:0rename tick,after: toIQInProgress:0,toRobInProgress0storesInProgress:0

in iew ,inst_from_rename size:0
in iew 
in iew sorted inst, get exe inst:0
in commit,getFromRename:0renamequeue:0in rename:
rename tick,before toIQ:0,toRob:0,storesInProgress:0
from IEW:dispatched:0 from commit:getfromrename:0
,dispatchedToSQ:0rename tick,after: toIQInProgress:0,toRobInProgress0storesInProgress:0

in iew ,inst_from_rename size:0
in iew 
in iew sorted inst, get exe inst:0
in commit,getFromRename:0renamequeue:0in rename:
rename tick,before toIQ:0,toRob:0,storesInProgress:0
from IEW:dispatched:0 from commit:getfromrename:0
,dispatchedToSQ:0rename tick,after: toIQInProgress:0,toRobInProgress0storesInProgress:0

in iew ,inst_from_rename size:0
in iew 
in iew sorted inst, get exe inst:0
in commit,getFromRename:0renamequeue:0in rename:
rename tick,before toIQ:0,toRob:0,storesInProgress:0
from IEW:dispatched:0 from commit:getfromrename:0
,dispatchedToSQ:0rename tick,after: toIQInProgress:0,toRobInProgress0storesInProgress:0

in iew ,inst_from_rename size:0
in iew 
in iew sorted inst, get exe inst:0
in commit,getFromRename:0renamequeue:0in rename:
rename tick,before toIQ:0,toRob:0,storesInProgress:0
from IEW:dispatched:0 from commit:getfromrename:0
,dispatchedToSQ:0rename tick,after: toIQInProgress:0,toRobInProgress0storesInProgress:0

in iew ,inst_from_rename size:0
in iew 
in iew sorted inst, get exe inst:0
in commit,getFromRename:0renamequeue:0in rename:
rename tick,before toIQ:0,toRob:0,storesInProgress:0
from IEW:dispatched:0 from commit:getfromrename:0
,dispatchedToSQ:0rename tick,after: toIQInProgress:0,toRobInProgress0storesInProgress:0

in iew ,inst_from_rename size:0
in iew 
in iew sorted inst, get exe inst:0
in commit,getFromRename:0renamequeue:0in rename:
rename tick,before toIQ:0,toRob:0,storesInProgress:0
from IEW:dispatched:0 from commit:getfromrename:0
,dispatchedToSQ:0rename tick,after: toIQInProgress:0,toRobInProgress0storesInProgress:0

in iew ,inst_from_rename size:0
in iew 
in iew sorted inst, get exe inst:0
in commit,getFromRename:0renamequeue:0in rename:
rename tick,before toIQ:0,toRob:0,storesInProgress:0
from IEW:dispatched:0 from commit:getfromrename:0
,dispatchedToSQ:0rename tick,after: toIQInProgress:0,toRobInProgress0storesInProgress:0

in iew ,inst_from_rename size:0
in iew 
in iew sorted inst, get exe inst:0
in commit,getFromRename:0renamequeue:0in rename:
rename tick,before toIQ:0,toRob:0,storesInProgress:0
from IEW:dispatched:0 from commit:getfromrename:0
,dispatchedToSQ:0rename tick,after: toIQInProgress:0,toRobInProgress0storesInProgress:0

in iew ,inst_from_rename size:0
in iew 
in iew sorted inst, get exe inst:0
in commit,getFromRename:0renamequeue:0in rename:
rename tick,before toIQ:0,toRob:0,storesInProgress:0
from IEW:dispatched:0 from commit:getfromrename:0
,dispatchedToSQ:0rename tick,after: toIQInProgress:0,toRobInProgress0storesInProgress:0

in iew ,inst_from_rename size:0
in iew 
in iew sorted inst, get exe inst:0
in commit,getFromRename:0renamequeue:0in rename:
to commit,commit size:1 iew size:0noNeedExe:1 T0 : 04233789 `  MOV_R_P : rdip   t7d, %ctrl153, '
to commit,commit size:2 iew size:0noNeedExe:1 T0 : 04233789 `  MOV_R_P : ld   r11d, DS:[t7 + 0xffffffffffbf65bc]'
to commit,commit size:3 iew size:0noNeedExe:1 T0 : 04233796 `  MOV_R_I : limm   eax, 0x1'
to commit,commit size:4 iew size:0noNeedExe:1 T0 : 04233801 `  TEST_R_R : and   t0d, r11d, r11d'
SN54get source op[0] value is:0
SN54get source op[1] value is:0
SN54get source op[2] value is:0
to iew,commit size:4 iew size:1noNeedExe:0 T0 : 04233804 `  CMOVZ_R_R : mov   edx, edx, edx'
to commit,commit size:5 iew size:1noNeedExe:0 T0 : 04233804 `  CMOVZ_R_R : mov   edx, edx, edx'
SN55get source op[1] value is:0
to iew,commit size:5 iew size:2noNeedExe:0 T0 : 04233804 `  CMOVZ_R_R : mov   edx, edx, eax'
to commit,commit size:6 iew size:2noNeedExe:0 T0 : 04233804 `  CMOVZ_R_R : mov   edx, edx, eax'
SN56get source op[0] value is:0
SN56get source op[1] value is:0
to iew,commit size:6 iew size:3noNeedExe:0 T0 : 04233807 `  MOV_R_M : ld   rax, DS:[rsp + 0x230]'
to commit,commit size:7 iew size:3noNeedExe:0 T0 : 04233807 `  MOV_R_M : ld   rax, DS:[rsp + 0x230]'
to iew,commit size:7 iew size:4noNeedExe:0 T0 : 04233815 `  MOV_P_R : rdip   t7d, %ctrl153, '
to commit,commit size:8 iew size:4noNeedExe:0 T0 : 04233815 `  MOV_P_R : rdip   t7d, %ctrl153, '
rename tick,before toIQ:4,toRob:8,storesInProgress:0
from IEW:dispatched:0 from commit:getfromrename:0
,dispatchedToSQ:0rename tick,after: toIQInProgress:4,toRobInProgress8storesInProgress:0

in iew ,inst_from_rename size:0
in iew 
in iew sorted inst, get exe inst:0
in commit,getFromRename:0renamequeue:0in rename:
to commit,commit size:1 iew size:0noNeedExe:1 T0 : 04233815 `  MOV_P_R : st   edx, DS:[t7 + 0x176d53]'
to commit,commit size:2 iew size:0noNeedExe:1 T0 : 04233821 `  MOV_P_R : rdip   t7, %ctrl153, '
to commit,commit size:3 iew size:0noNeedExe:1 T0 : 04233821 `  MOV_P_R : st   rdi, DS:[t7 + 0x189394]'
to commit,commit size:4 iew size:0noNeedExe:1 T0 : 04233828 `  MOV_P_R : rdip   t7, %ctrl153, '
SN62get source op[0] value is:0
to iew,commit size:4 iew size:1noNeedExe:0 T0 : 04233828 `  MOV_P_R : st   rax, DS:[t7 + 0x175f8d]'
to commit,commit size:5 iew size:1noNeedExe:0 T0 : 04233828 `  MOV_P_R : st   rax, DS:[t7 + 0x175f8d]'
to iew,commit size:5 iew size:2noNeedExe:0 T0 : 04233835 `  NOP   '
to commit,commit size:6 iew size:2noNeedExe:0 T0 : 04233835 `  NOP   '
to iew,commit size:6 iew size:3noNeedExe:0 T0 : 04233838 `  NOP   '
to commit,commit size:7 iew size:3noNeedExe:0 T0 : 04233838 `  NOP   '
SN65get source op[0] value is:0
SN65get source op[1] value is:0
to iew,commit size:7 iew size:4noNeedExe:0 T0 : 04233840 `  MOV_R_M : ld   rax, DS:[rdi]'
to commit,commit size:8 iew size:4noNeedExe:0 T0 : 04233840 `  MOV_R_M : ld   rax, DS:[rdi]'
rename tick,before toIQ:8,toRob:16,storesInProgress:1
from IEW:dispatched:0 from commit:getfromrename:0
,dispatchedToSQ:0rename tick,after: toIQInProgress:8,toRobInProgress16storesInProgress:1

in iew ,inst_from_rename size:0
in iew 
in iew sorted inst, get exe inst:0
in commit,getFromRename:8renamequeue:8in rename:
i am in wake up renamer instT0 : 04233789 `  MOV_R_P : rdip   t7d, %ctrl153, '
0 T0 : 04233789 `  MOV_R_P : rdip   t7d, %ctrl153, '
to commit,commit size:1 iew size:1noNeedExe:1 T0 : 04233843 `  ADD_R_I : limm   t1, 0x8'
to commit,commit size:2 iew size:1noNeedExe:1 T0 : 04233843 `  ADD_R_I : add   rdi, rdi, t1'
to commit,commit size:3 iew size:1noNeedExe:1 T0 : 04233847 `  TEST_R_R : and   t0, rax, rax'
to commit,commit size:4 iew size:1noNeedExe:1 T0 : 04233850 `  JNZ_I : rdip   t1, %ctrl153, '
to iew,commit size:4 iew size:2noNeedExe:0 T0 : 04233850 `  JNZ_I : limm   t2, 0xfffffffffffffff4'
to commit,commit size:5 iew size:2noNeedExe:0 T0 : 04233850 `  JNZ_I : limm   t2, 0xfffffffffffffff4'
SN71get source op[0] value is:0
to iew,commit size:5 iew size:3noNeedExe:0 T0 : 04233850 `  JNZ_I : wrip   , t1, t2'
to commit,commit size:6 iew size:3noNeedExe:0 T0 : 04233850 `  JNZ_I : wrip   , t1, t2'
rename tick,before toIQ:11,toRob:22,storesInProgress:1
from IEW:dispatched:0 from commit:getfromrename:8
,dispatchedToSQ:0rename tick,after: toIQInProgress:11,toRobInProgress14storesInProgress:1

in iew ,inst_from_rename size:4
in iew 
0 T0 : 04233804 `  CMOVZ_R_R : mov   edx, edx, edx'
0 T0 : 04233804 `  CMOVZ_R_R : mov   edx, edx, eax'
0 T0 : 04233807 `  MOV_R_M : ld   rax, DS:[rsp + 0x230]'
0 T0 : 04233815 `  MOV_P_R : rdip   t7d, %ctrl153, '
in iew sorted inst, get exe inst:4
in commit,getFromRename:8renamequeue:8in rename:
rename tick,before toIQ:11,toRob:14,storesInProgress:1
from IEW:dispatched:4 from commit:getfromrename:8
,dispatchedToSQ:0rename tick,after: toIQInProgress:7,toRobInProgress6storesInProgress:1

in iew ,inst_from_rename size:4
in iew 
0 T0 : 04233828 `  MOV_P_R : st   rax, DS:[t7 + 0x175f8d]'
0 T0 : 04233835 `  NOP   '
0 T0 : 04233838 `  NOP   '
0 T0 : 04233840 `  MOV_R_M : ld   rax, DS:[rdi]'
in iew sorted inst, get exe inst:4
in commit,getFromRename:6renamequeue:6in rename:
rename tick,before toIQ:7,toRob:6,storesInProgress:1
from IEW:dispatched:4 from commit:getfromrename:6
,dispatchedToSQ:1rename tick,after: toIQInProgress:3,toRobInProgress0storesInProgress:0

in iew ,inst_from_rename size:3
in iew 
0 T0 : 04233789 `  MOV_R_P : rdip   t7d, %ctrl153, '
0 T0 : 04233850 `  JNZ_I : limm   t2, 0xfffffffffffffff4'
0 T0 : 04233850 `  JNZ_I : wrip   , t1, t2'
in iew sorted inst, get exe inst:3
in commit,getFromRename:0renamequeue:0in rename:
rename tick,before toIQ:3,toRob:0,storesInProgress:0
from IEW:dispatched:3 from commit:getfromrename:0
,dispatchedToSQ:0rename tick,after: toIQInProgress:0,toRobInProgress0storesInProgress:0

in iew ,inst_from_rename size:0
in iew 
in iew sorted inst, get exe inst:0
in commit,getFromRename:0renamequeue:0in rename:
rename tick,before toIQ:0,toRob:0,storesInProgress:0
from IEW:dispatched:0 from commit:getfromrename:0
,dispatchedToSQ:0rename tick,after: toIQInProgress:0,toRobInProgress0storesInProgress:0

in iew ,inst_from_rename size:0
in iew 
in iew sorted inst, get exe inst:0
in commit,getFromRename:0renamequeue:0in rename:
rename tick,before toIQ:0,toRob:0,storesInProgress:0
from IEW:dispatched:0 from commit:getfromrename:0
,dispatchedToSQ:0rename tick,after: toIQInProgress:0,toRobInProgress0storesInProgress:0

in iew ,inst_from_rename size:0
in iew 
in iew sorted inst, get exe inst:0
in commit,getFromRename:0renamequeue:0in rename:
rename tick,before toIQ:0,toRob:0,storesInProgress:0
from IEW:dispatched:0 from commit:getfromrename:0
,dispatchedToSQ:0rename tick,after: toIQInProgress:0,toRobInProgress0storesInProgress:0

in iew ,inst_from_rename size:0
in iew 
in iew sorted inst, get exe inst:0
[...]
in commit,getFromRename:0renamequeue:0in rename:
rename tick,before toIQ:0,toRob:0,storesInProgress:0
from IEW:dispatched:0 from commit:getfromrename:0
,dispatchedToSQ:0rename tick,after: toIQInProgress:0,toRobInProgress0storesInProgress:0

in iew ,inst_from_rename size:0
in iew 
in iew sorted inst, get exe inst:0
commithead:: SN:51 val:0 T0 : 04233789 `  MOV_R_P : ld   r11d, DS:[t7 + 0xffffffffffbf65bc]'
i am can not commit head:T0 : 04233789 `  MOV_R_P : ld   r11d, DS:[t7 + 0xffffffffffbf65bc]'
in commit,getFromRename:0renamequeue:0in rename:
rename tick,before toIQ:0,toRob:0,storesInProgress:0
from IEW:dispatched:0 from commit:getfromrename:0
,dispatchedToSQ:0rename tick,after: toIQInProgress:0,toRobInProgress0storesInProgress:0

in iew ,inst_from_rename size:0
in iew 
in iew sorted inst, get exe inst:0
commithead:: SN:51 val:0 T0 : 04233789 `  MOV_R_P : ld   r11d, DS:[t7 + 0xffffffffffbf65bc]'
i am can not commit head:T0 : 04233789 `  MOV_R_P : ld   r11d, DS:[t7 + 0xffffffffffbf65bc]'
in commit,getFromRename:0renamequeue:0in rename:
rename tick,before toIQ:0,toRob:0,storesInProgress:0
from IEW:dispatched:0 from commit:getfromrename:0
,dispatchedToSQ:0rename tick,after: toIQInProgress:0,toRobInProgress0storesInProgress:0

in iew ,inst_from_rename size:0
in iew 
in iew sorted inst, get exe inst:0
commithead:: SN:51 val:0 T0 : 04233789 `  MOV_R_P : ld   r11d, DS:[t7 + 0xffffffffffbf65bc]'
i am can not commit head:T0 : 04233789 `  MOV_R_P : ld   r11d, DS:[t7 + 0xffffffffffbf65bc]'
in commit,getFromRename:0renamequeue:0in rename:
rename tick,before toIQ:0,toRob:0,storesInProgress:0
from IEW:dispatched:0 from commit:getfromrename:0
,dispatchedToSQ:0rename tick,after: toIQInProgress:0,toRobInProgress0storesInProgress:0

in iew ,inst_from_rename size:0
in iew 
in iew sorted inst, get exe inst:0
commithead:: SN:51 val:0 T0 : 04233789 `  MOV_R_P : ld   r11d, DS:[t7 + 0xffffffffffbf65bc]'
i am can not commit head:T0 : 04233789 `  MOV_R_P : ld   r11d, DS:[t7 + 0xffffffffffbf65bc]'
in commit,getFromRename:0renamequeue:0in rename:
rename tick,before toIQ:0,toRob:0,storesInProgress:0
from IEW:dispatched:0 from commit:getfromrename:0
,dispatchedToSQ:0rename tick,after: toIQInProgress:0,toRobInProgress0storesInProgress:0

in iew ,inst_from_rename size:0
in iew 
in iew sorted inst, get exe inst:0
commithead:: SN:51 val:0 T0 : 04233789 `  MOV_R_P : ld   r11d, DS:[t7 + 0xffffffffffbf65bc]'
i am can not commit head:T0 : 04233789 `  MOV_R_P : ld   r11d, DS:[t7 + 0xffffffffffbf65bc]'
in commit,getFromRename:0renamequeue:0in rename:
rename tick,before toIQ:0,toRob:0,storesInProgress:0
from IEW:dispatched:0 from commit:getfromrename:0
,dispatchedToSQ:0rename tick,after: toIQInProgress:0,toRobInProgress0storesInProgress:0

in iew ,inst_from_rename size:0
in iew 
in iew sorted inst, get exe inst:0
commithead:: SN:51 val:0 T0 : 04233789 `  MOV_R_P : ld   r11d, DS:[t7 + 0xffffffffffbf65bc]'
i am can not commit head:T0 : 04233789 `  MOV_R_P : ld   r11d, DS:[t7 + 0xffffffffffbf65bc]'
in commit,getFromRename:0renamequeue:0in rename:
rename tick,before toIQ:0,toRob:0,storesInProgress:0
from IEW:dispatched:0 from commit:getfromrename:0
,dispatchedToSQ:0rename tick,after: toIQInProgress:0,toRobInProgress0storesInProgress:0

in iew ,inst_from_rename size:0
in iew 
in iew sorted inst, get exe inst:0
commithead:: SN:51 val:0 T0 : 04233789 `  MOV_R_P : ld   r11d, DS:[t7 + 0xffffffffffbf65bc]'
i am can not commit head:T0 : 04233789 `  MOV_R_P : ld   r11d, DS:[t7 + 0xffffffffffbf65bc]'
in commit,getFromRename:0renamequeue:0in rename:
rename tick,before toIQ:0,toRob:0,storesInProgress:0
from IEW:dispatched:0 from commit:getfromrename:0
,dispatchedToSQ:0rename tick,after: toIQInProgress:0,toRobInProgress0storesInProgress:0

in iew ,inst_from_rename size:0
in iew 
in iew sorted inst, get exe inst:0
commithead:: SN:51 val:0 T0 : 04233789 `  MOV_R_P : ld   r11d, DS:[t7 + 0xffffffffffbf65bc]'
i am can not commit head:T0 : 04233789 `  MOV_R_P : ld   r11d, DS:[t7 + 0xffffffffffbf65bc]'
in commit,getFromRename:0renamequeue:0in rename:
rename tick,before toIQ:0,toRob:0,storesInProgress:0
from IEW:dispatched:0 from commit:getfromrename:0
,dispatchedToSQ:0rename tick,after: toIQInProgress:0,toRobInProgress0storesInProgress:0

in iew ,inst_from_rename size:0
in iew 
in iew sorted inst, get exe inst:0
commithead:: SN:51 val:0 T0 : 04233789 `  MOV_R_P : ld   r11d, DS:[t7 + 0xffffffffffbf65bc]'
i am can not commit head:T0 : 04233789 `  MOV_R_P : ld   r11d, DS:[t7 + 0xffffffffffbf65bc]'
in commit,getFromRename:0renamequeue:0in rename:
rename tick,before toIQ:0,toRob:0,storesInProgress:0
from IEW:dispatched:0 from commit:getfromrename:0
,dispatchedToSQ:0rename tick,after: toIQInProgress:0,toRobInProgress0storesInProgress:0

in iew ,inst_from_rename size:0
in iew 
in iew sorted inst, get exe inst:0
commithead:: SN:51 val:0 T0 : 04233789 `  MOV_R_P : ld   r11d, DS:[t7 + 0xffffffffffbf65bc]'
i am can not commit head:T0 : 04233789 `  MOV_R_P : ld   r11d, DS:[t7 + 0xffffffffffbf65bc]'
in commit,getFromRename:0renamequeue:0in rename:
rename tick,before toIQ:0,toRob:0,storesInProgress:0
from IEW:dispatched:0 from commit:getfromrename:0
,dispatchedToSQ:0rename tick,after: toIQInProgress:0,toRobInProgress0storesInProgress:0

in iew ,inst_from_rename size:0
in iew 
in iew sorted inst, get exe inst:0
commithead:: SN:51 val:0 T0 : 04233789 `  MOV_R_P : ld   r11d, DS:[t7 + 0xffffffffffbf65bc]'
i am can not commit head:T0 : 04233789 `  MOV_R_P : ld   r11d, DS:[t7 + 0xffffffffffbf65bc]'
in commit,getFromRename:0renamequeue:0in rename:
rename tick,before toIQ:0,toRob:0,storesInProgress:0
from IEW:dispatched:0 from commit:getfromrename:0
,dispatchedToSQ:0rename tick,after: toIQInProgress:0,toRobInProgress0storesInProgress:0

in iew ,inst_from_rename size:0
in iew 
in iew sorted inst, get exe inst:0
commithead:: SN:51 val:0 T0 : 04233789 `  MOV_R_P : ld   r11d, DS:[t7 + 0xffffffffffbf65bc]'
i am can not commit head:T0 : 04233789 `  MOV_R_P : ld   r11d, DS:[t7 + 0xffffffffffbf65bc]'
in commit,getFromRename:0renamequeue:0in rename:
rename tick,before toIQ:0,toRob:0,storesInProgress:0
from IEW:dispatched:0 from commit:getfromrename:0
,dispatchedToSQ:0rename tick,after: toIQInProgress:0,toRobInProgress0storesInProgress:0

in iew ,inst_from_rename size:0
in iew 
in iew sorted inst, get exe inst:0
commithead:: SN:51 val:0 T0 : 04233789 `  MOV_R_P : ld   r11d, DS:[t7 + 0xffffffffffbf65bc]'
i am can not commit head:T0 : 04233789 `  MOV_R_P : ld   r11d, DS:[t7 + 0xffffffffffbf65bc]'
in commit,getFromRename:0renamequeue:0in rename:
rename tick,before toIQ:0,toRob:0,storesInProgress:0
from IEW:dispatched:0 from commit:getfromrename:0
,dispatchedToSQ:0rename tick,after: toIQInProgress:0,toRobInProgress0storesInProgress:0

in iew ,inst_from_rename size:0
in iew 
in iew sorted inst, get exe inst:0
commithead:: SN:51 val:0 T0 : 04233789 `  MOV_R_P : ld   r11d, DS:[t7 + 0xffffffffffbf65bc]'
i am can not commit head:T0 : 04233789 `  MOV_R_P : ld   r11d, DS:[t7 + 0xffffffffffbf65bc]'
in commit,getFromRename:0renamequeue:0in rename:
rename tick,before toIQ:0,toRob:0,storesInProgress:0
from IEW:dispatched:0 from commit:getfromrename:0
,dispatchedToSQ:0rename tick,after: toIQInProgress:0,toRobInProgress0storesInProgress:0

in iew ,inst_from_rename size:0
in iew 
in iew sorted inst, get exe inst:0
commithead:: SN:51 val:0 T0 : 04233789 `  MOV_R_P : ld   r11d, DS:[t7 + 0xffffffffffbf65bc]'
i am can not commit head:T0 : 04233789 `  MOV_R_P : ld   r11d, DS:[t7 + 0xffffffffffbf65bc]'
in commit,getFromRename:0renamequeue:0in rename:
rename tick,before toIQ:0,toRob:0,storesInProgress:0
from IEW:dispatched:0 from commit:getfromrename:0
,dispatchedToSQ:0rename tick,after: toIQInProgress:0,toRobInProgress0storesInProgress:0

in iew ,inst_from_rename size:0
in iew 
in iew sorted inst, get exe inst:0
commithead:: SN:51 val:0 T0 : 04233789 `  MOV_R_P : ld   r11d, DS:[t7 + 0xffffffffffbf65bc]'
i am can not commit head:T0 : 04233789 `  MOV_R_P : ld   r11d, DS:[t7 + 0xffffffffffbf65bc]'
in commit,getFromRename:0renamequeue:0in rename:
rename tick,before toIQ:0,toRob:0,storesInProgress:0
from IEW:dispatched:0 from commit:getfromrename:0
,dispatchedToSQ:0rename tick,after: toIQInProgress:0,toRobInProgress0storesInProgress:0

in iew ,inst_from_rename size:0
in iew 
in iew sorted inst, get exe inst:0
commithead:: SN:51 val:0 T0 : 04233789 `  MOV_R_P : ld   r11d, DS:[t7 + 0xffffffffffbf65bc]'
i am can not commit head:T0 : 04233789 `  MOV_R_P : ld   r11d, DS:[t7 + 0xffffffffffbf65bc]'
in commit,getFromRename:0renamequeue:0in rename:
rename tick,before toIQ:0,toRob:0,storesInProgress:0
from IEW:dispatched:0 from commit:getfromrename:0
,dispatchedToSQ:0rename tick,after: toIQInProgress:0,toRobInProgress0storesInProgress:0

in iew ,inst_from_rename size:0
in iew 
in iew sorted inst, get exe inst:0
commithead:: SN:51 val:0 T0 : 04233789 `  MOV_R_P : ld   r11d, DS:[t7 + 0xffffffffffbf65bc]'
i am can not commit head:T0 : 04233789 `  MOV_R_P : ld   r11d, DS:[t7 + 0xffffffffffbf65bc]'
in commit,getFromRename:0renamequeue:0in rename:
rename tick,before toIQ:0,toRob:0,storesInProgress:0
from IEW:dispatched:0 from commit:getfromrename:0
,dispatchedToSQ:0rename tick,after: toIQInProgress:0,toRobInProgress0storesInProgress:0

in iew ,inst_from_rename size:0
in iew 
in iew sorted inst, get exe inst:0
commithead:: SN:51 val:0 T0 : 04233789 `  MOV_R_P : ld   r11d, DS:[t7 + 0xffffffffffbf65bc]'
i am can not commit head:T0 : 04233789 `  MOV_R_P : ld   r11d, DS:[t7 + 0xffffffffffbf65bc]'
in commit,getFromRename:0renamequeue:0in rename:
rename tick,before toIQ:0,toRob:0,storesInProgress:0
from IEW:dispatched:0 from commit:getfromrename:0
,dispatchedToSQ:0rename tick,after: toIQInProgress:0,toRobInProgress0storesInProgress:0

in iew ,inst_from_rename size:0
in iew 
in iew sorted inst, get exe inst:0
commithead:: SN:51 val:0 T0 : 04233789 `  MOV_R_P : ld   r11d, DS:[t7 + 0xffffffffffbf65bc]'
i am can not commit head:T0 : 04233789 `  MOV_R_P : ld   r11d, DS:[t7 + 0xffffffffffbf65bc]'
in commit,getFromRename:0renamequeue:0in rename:
rename tick,before toIQ:0,toRob:0,storesInProgress:0
from IEW:dispatched:0 from commit:getfromrename:0
,dispatchedToSQ:0rename tick,after: toIQInProgress:0,toRobInProgress0storesInProgress:0

in iew ,inst_from_rename size:0
in iew 
in iew sorted inst, get exe inst:0
commithead:: SN:51 val:0 T0 : 04233789 `  MOV_R_P : ld   r11d, DS:[t7 + 0xffffffffffbf65bc]'
i am can not commit head:T0 : 04233789 `  MOV_R_P : ld   r11d, DS:[t7 + 0xffffffffffbf65bc]'
in commit,getFromRename:0renamequeue:0in rename:
rename tick,before toIQ:0,toRob:0,storesInProgress:0
from IEW:dispatched:0 from commit:getfromrename:0
,dispatchedToSQ:0rename tick,after: toIQInProgress:0,toRobInProgress0storesInProgress:0

in iew ,inst_from_rename size:0
in iew 
in iew sorted inst, get exe inst:0
commithead:: SN:51 val:0 T0 : 04233789 `  MOV_R_P : ld   r11d, DS:[t7 + 0xffffffffffbf65bc]'
i am can not commit head:T0 : 04233789 `  MOV_R_P : ld   r11d, DS:[t7 + 0xffffffffffbf65bc]'
in commit,getFromRename:0renamequeue:0in rename:
rename tick,before toIQ:0,toRob:0,storesInProgress:0
from IEW:dispatched:0 from commit:getfromrename:0
,dispatchedToSQ:0rename tick,after: toIQInProgress:0,toRobInProgress0storesInProgress:0

in iew ,inst_from_rename size:0
in iew 
in iew sorted inst, get exe inst:0
commithead:: SN:51 val:0 T0 : 04233789 `  MOV_R_P : ld   r11d, DS:[t7 + 0xffffffffffbf65bc]'
i am can not commit head:T0 : 04233789 `  MOV_R_P : ld   r11d, DS:[t7 + 0xffffffffffbf65bc]'
in commit,getFromRename:0renamequeue:0in rename:
rename tick,before toIQ:0,toRob:0,storesInProgress:0
from IEW:dispatched:0 from commit:getfromrename:0
,dispatchedToSQ:0rename tick,after: toIQInProgress:0,toRobInProgress0storesInProgress:0

in iew ,inst_from_rename size:0
in iew 
in iew sorted inst, get exe inst:0
commithead:: SN:51 val:0 T0 : 04233789 `  MOV_R_P : ld   r11d, DS:[t7 + 0xffffffffffbf65bc]'
i am can not commit head:T0 : 04233789 `  MOV_R_P : ld   r11d, DS:[t7 + 0xffffffffffbf65bc]'
in commit,getFromRename:0renamequeue:0in rename:
rename tick,before toIQ:0,toRob:0,storesInProgress:0
from IEW:dispatched:0 from commit:getfromrename:0
,dispatchedToSQ:0rename tick,after: toIQInProgress:0,toRobInProgress0storesInProgress:0

in iew ,inst_from_rename size:0
in iew 
in iew sorted inst, get exe inst:0
commithead:: SN:51 val:0 T0 : 04233789 `  MOV_R_P : ld   r11d, DS:[t7 + 0xffffffffffbf65bc]'
i am can not commit head:T0 : 04233789 `  MOV_R_P : ld   r11d, DS:[t7 + 0xffffffffffbf65bc]'
in commit,getFromRename:0renamequeue:0in rename:
rename tick,before toIQ:0,toRob:0,storesInProgress:0
from IEW:dispatched:0 from commit:getfromrename:0
,dispatchedToSQ:0rename tick,after: toIQInProgress:0,toRobInProgress0storesInProgress:0

in iew ,inst_from_rename size:0
in iew 
in iew sorted inst, get exe inst:0
commithead:: SN:51 val:0 T0 : 04233789 `  MOV_R_P : ld   r11d, DS:[t7 + 0xffffffffffbf65bc]'
i am can not commit head:T0 : 04233789 `  MOV_R_P : ld   r11d, DS:[t7 + 0xffffffffffbf65bc]'
in commit,getFromRename:0renamequeue:0in rename:
rename tick,before toIQ:0,toRob:0,storesInProgress:0
from IEW:dispatched:0 from commit:getfromrename:0
,dispatchedToSQ:0rename tick,after: toIQInProgress:0,toRobInProgress0storesInProgress:0

in iew ,inst_from_rename size:0
in iew 
in iew sorted inst, get exe inst:0
commithead:: SN:51 val:0 T0 : 04233789 `  MOV_R_P : ld   r11d, DS:[t7 + 0xffffffffffbf65bc]'
i am can not commit head:T0 : 04233789 `  MOV_R_P : ld   r11d, DS:[t7 + 0xffffffffffbf65bc]'
in commit,getFromRename:0renamequeue:0in rename:
rename tick,before toIQ:0,toRob:0,storesInProgress:0
from IEW:dispatched:0 from commit:getfromrename:0
,dispatchedToSQ:0rename tick,after: toIQInProgress:0,toRobInProgress0storesInProgress:0

in iew ,inst_from_rename size:0
in iew 
in iew sorted inst, get exe inst:0
commithead:: SN:51 val:0 T0 : 04233789 `  MOV_R_P : ld   r11d, DS:[t7 + 0xffffffffffbf65bc]'
i am can not commit head:T0 : 04233789 `  MOV_R_P : ld   r11d, DS:[t7 + 0xffffffffffbf65bc]'
in commit,getFromRename:0renamequeue:0in rename:
rename tick,before toIQ:0,toRob:0,storesInProgress:0
from IEW:dispatched:0 from commit:getfromrename:0
,dispatchedToSQ:0rename tick,after: toIQInProgress:0,toRobInProgress0storesInProgress:0

in iew ,inst_from_rename size:0
in iew 
in iew sorted inst, get exe inst:0
commithead:: SN:51 val:0 T0 : 04233789 `  MOV_R_P : ld   r11d, DS:[t7 + 0xffffffffffbf65bc]'
i am can not commit head:T0 : 04233789 `  MOV_R_P : ld   r11d, DS:[t7 + 0xffffffffffbf65bc]'
in commit,getFromRename:0renamequeue:0in rename:
rename tick,before toIQ:0,toRob:0,storesInProgress:0
from IEW:dispatched:0 from commit:getfromrename:0
,dispatchedToSQ:0rename tick,after: toIQInProgress:0,toRobInProgress0storesInProgress:0

in iew ,inst_from_rename size:0
in iew 
in iew sorted inst, get exe inst:0
commithead:: SN:51 val:0 T0 : 04233789 `  MOV_R_P : ld   r11d, DS:[t7 + 0xffffffffffbf65bc]'
i am can not commit head:T0 : 04233789 `  MOV_R_P : ld   r11d, DS:[t7 + 0xffffffffffbf65bc]'
in commit,getFromRename:0renamequeue:0in rename:
rename tick,before toIQ:0,toRob:0,storesInProgress:0
from IEW:dispatched:0 from commit:getfromrename:0
,dispatchedToSQ:0rename tick,after: toIQInProgress:0,toRobInProgress0storesInProgress:0

in iew ,inst_from_rename size:0
in iew 
in iew sorted inst, get exe inst:0
commithead:: SN:51 val:0 T0 : 04233789 `  MOV_R_P : ld   r11d, DS:[t7 + 0xffffffffffbf65bc]'
i am can not commit head:T0 : 04233789 `  MOV_R_P : ld   r11d, DS:[t7 + 0xffffffffffbf65bc]'
in commit,getFromRename:0renamequeue:0in rename:
rename tick,before toIQ:0,toRob:0,storesInProgress:0
from IEW:dispatched:0 from commit:getfromrename:0
,dispatchedToSQ:0rename tick,after: toIQInProgress:0,toRobInProgress0storesInProgress:0

in iew ,inst_from_rename size:0
in iew 
in iew sorted inst, get exe inst:0
commithead:: SN:51 val:0 T0 : 04233789 `  MOV_R_P : ld   r11d, DS:[t7 + 0xffffffffffbf65bc]'
i am can not commit head:T0 : 04233789 `  MOV_R_P : ld   r11d, DS:[t7 + 0xffffffffffbf65bc]'
in commit,getFromRename:0renamequeue:0in rename:
rename tick,before toIQ:0,toRob:0,storesInProgress:0
from IEW:dispatched:0 from commit:getfromrename:0
,dispatchedToSQ:0rename tick,after: toIQInProgress:0,toRobInProgress0storesInProgress:0

in iew ,inst_from_rename size:0
in iew 
in iew sorted inst, get exe inst:0
commithead:: SN:51 val:0 T0 : 04233789 `  MOV_R_P : ld   r11d, DS:[t7 + 0xffffffffffbf65bc]'
i am can not commit head:T0 : 04233789 `  MOV_R_P : ld   r11d, DS:[t7 + 0xffffffffffbf65bc]'
in commit,getFromRename:0renamequeue:0in rename:
rename tick,before toIQ:0,toRob:0,storesInProgress:0
from IEW:dispatched:0 from commit:getfromrename:0
,dispatchedToSQ:0rename tick,after: toIQInProgress:0,toRobInProgress0storesInProgress:0

in iew ,inst_from_rename size:0
in iew 
in iew sorted inst, get exe inst:0
commithead:: SN:51 val:0 T0 : 04233789 `  MOV_R_P : ld   r11d, DS:[t7 + 0xffffffffffbf65bc]'
i am can not commit head:T0 : 04233789 `  MOV_R_P : ld   r11d, DS:[t7 + 0xffffffffffbf65bc]'
in commit,getFromRename:0renamequeue:0in rename:
rename tick,before toIQ:0,toRob:0,storesInProgress:0
from IEW:dispatched:0 from commit:getfromrename:0
,dispatchedToSQ:0rename tick,after: toIQInProgress:0,toRobInProgress0storesInProgress:0

in iew ,inst_from_rename size:0
in iew 
in iew sorted inst, get exe inst:0
commithead:: SN:51 val:0 T0 : 04233789 `  MOV_R_P : ld   r11d, DS:[t7 + 0xffffffffffbf65bc]'
i am can not commit head:T0 : 04233789 `  MOV_R_P : ld   r11d, DS:[t7 + 0xffffffffffbf65bc]'
in commit,getFromRename:0renamequeue:0in rename:
rename tick,before toIQ:0,toRob:0,storesInProgress:0
from IEW:dispatched:0 from commit:getfromrename:0
,dispatchedToSQ:0rename tick,after: toIQInProgress:0,toRobInProgress0storesInProgress:0

in iew ,inst_from_rename size:0
in iew 
in iew sorted inst, get exe inst:0
commithead:: SN:51 val:0 T0 : 04233789 `  MOV_R_P : ld   r11d, DS:[t7 + 0xffffffffffbf65bc]'
i am can not commit head:T0 : 04233789 `  MOV_R_P : ld   r11d, DS:[t7 + 0xffffffffffbf65bc]'
in commit,getFromRename:0renamequeue:0in rename:
rename tick,before toIQ:0,toRob:0,storesInProgress:0
from IEW:dispatched:0 from commit:getfromrename:0
,dispatchedToSQ:0rename tick,after: toIQInProgress:0,toRobInProgress0storesInProgress:0

in iew ,inst_from_rename size:0
in iew 
in iew sorted inst, get exe inst:0
commithead:: SN:51 val:0 T0 : 04233789 `  MOV_R_P : ld   r11d, DS:[t7 + 0xffffffffffbf65bc]'
i am can not commit head:T0 : 04233789 `  MOV_R_P : ld   r11d, DS:[t7 + 0xffffffffffbf65bc]'
in commit,getFromRename:0renamequeue:0in rename:
rename tick,before toIQ:0,toRob:0,storesInProgress:0
from IEW:dispatched:0 from commit:getfromrename:0
,dispatchedToSQ:0rename tick,after: toIQInProgress:0,toRobInProgress0storesInProgress:0

in iew ,inst_from_rename size:0
in iew 
in iew sorted inst, get exe inst:0
commithead:: SN:51 val:0 T0 : 04233789 `  MOV_R_P : ld   r11d, DS:[t7 + 0xffffffffffbf65bc]'
i am can not commit head:T0 : 04233789 `  MOV_R_P : ld   r11d, DS:[t7 + 0xffffffffffbf65bc]'
in commit,getFromRename:0renamequeue:0in rename:
rename tick,before toIQ:0,toRob:0,storesInProgress:0
from IEW:dispatched:0 from commit:getfromrename:0
,dispatchedToSQ:0rename tick,after: toIQInProgress:0,toRobInProgress0storesInProgress:0

in iew ,inst_from_rename size:0
in iew 
in iew sorted inst, get exe inst:0
commithead:: SN:51 val:0 T0 : 04233789 `  MOV_R_P : ld   r11d, DS:[t7 + 0xffffffffffbf65bc]'
i am can not commit head:T0 : 04233789 `  MOV_R_P : ld   r11d, DS:[t7 + 0xffffffffffbf65bc]'
in commit,getFromRename:0renamequeue:0in rename:
rename tick,before toIQ:0,toRob:0,storesInProgress:0
from IEW:dispatched:0 from commit:getfromrename:0
,dispatchedToSQ:0rename tick,after: toIQInProgress:0,toRobInProgress0storesInProgress:0

in iew ,inst_from_rename size:0
in iew 
in iew sorted inst, get exe inst:0
commithead:: SN:51 val:0 T0 : 04233789 `  MOV_R_P : ld   r11d, DS:[t7 + 0xffffffffffbf65bc]'
