gem5 Simulator System.  http://gem5.org
gem5 is copyrighted software; use the --copyright option for details.

gem5 compiled Mar 27 2019 11:14:45
gem5 started Mar 27 2019 11:17:23
gem5 executing on mprc-R730, pid 40619
command line: build/X86/gem5.opt --debug-flags=O3CPUAll --debug-start=30000 --debug-file=traceo3v2.out configs/example/se.py -c tests/test-progs/hello/bin/x86/linux/hello --cpu-type=DerivO3CPU --caches

Global frequency set at 1000000000000 ticks per second
**** REAL SIMULATION ****
rename tick,before toRobInProgress:0,dispatched:0,noNeedExe:0
rename tick,after toRobInProgress:0
rename tick,before toRobInProgress:0,dispatched:0,noNeedExe:0
rename tick,after toRobInProgress:0
rename tick,before toRobInProgress:0,dispatched:0,noNeedExe:0
rename tick,after toRobInProgress:0
rename tick,before toRobInProgress:0,dispatched:0,noNeedExe:0
rename tick,after toRobInProgress:0
rename tick,before toRobInProgress:0,dispatched:0,noNeedExe:0
rename tick,after toRobInProgress:0
rename tick,before toRobInProgress:0,dispatched:0,noNeedExe:0
rename tick,after toRobInProgress:0
rename tick,before toRobInProgress:0,dispatched:0,noNeedExe:0
rename tick,after toRobInProgress:0
rename tick,before toRobInProgress:0,dispatched:0,noNeedExe:0
rename tick,after toRobInProgress:0
rename tick,before toRobInProgress:0,dispatched:0,noNeedExe:0
rename tick,after toRobInProgress:0
rename tick,before toRobInProgress:0,dispatched:0,noNeedExe:0
rename tick,after toRobInProgress:0
rename tick,before toRobInProgress:0,dispatched:0,noNeedExe:0
rename tick,after toRobInProgress:0
rename tick,before toRobInProgress:0,dispatched:0,noNeedExe:0
rename tick,after toRobInProgress:0
rename tick,before toRobInProgress:0,dispatched:0,noNeedExe:0
rename tick,after toRobInProgress:0
rename tick,before toRobInProgress:0,dispatched:0,noNeedExe:0
rename tick,after toRobInProgress:0
rename tick,before toRobInProgress:8,dispatched:0,noNeedExe:0
rename tick,after toRobInProgress:8
rename tick,before toRobInProgress:16,dispatched:0,noNeedExe:0
rename tick,after toRobInProgress:16
rename tick,before toRobInProgress:21,dispatched:0,noNeedExe:0
rename tick,after toRobInProgress:21
rename tick,before toRobInProgress:21,dispatched:8,noNeedExe:0
rename tick,after toRobInProgress:13
rename tick,before toRobInProgress:13,dispatched:8,noNeedExe:0
rename tick,after toRobInProgress:5
rename tick,before toRobInProgress:5,dispatched:5,noNeedExe:0
rename tick,after toRobInProgress:0
rename tick,before toRobInProgress:0,dispatched:0,noNeedExe:0
rename tick,after toRobInProgress:0
rename tick,before toRobInProgress:0,dispatched:0,noNeedExe:0
rename tick,after toRobInProgress:0
rename tick,before toRobInProgress:0,dispatched:0,noNeedExe:0
rename tick,after toRobInProgress:0
rename tick,before toRobInProgress:0,dispatched:0,noNeedExe:0
rename tick,after toRobInProgress:0
rename tick,before toRobInProgress:0,dispatched:0,noNeedExe:0
rename tick,after toRobInProgress:0
rename tick,before toRobInProgress:0,dispatched:0,noNeedExe:0
rename tick,after toRobInProgress:0
rename tick,before toRobInProgress:0,dispatched:0,noNeedExe:0
rename tick,after toRobInProgress:0
rename tick,before toRobInProgress:0,dispatched:0,noNeedExe:0
rename tick,after toRobInProgress:0
rename tick,before toRobInProgress:0,dispatched:0,noNeedExe:0
rename tick,after toRobInProgress:0
rename tick,before toRobInProgress:0,dispatched:0,noNeedExe:0
rename tick,after toRobInProgress:0
rename tick,before toRobInProgress:0,dispatched:0,noNeedExe:0
rename tick,after toRobInProgress:0
rename tick,before toRobInProgress:0,dispatched:0,noNeedExe:0
rename tick,after toRobInProgress:0
rename tick,before toRobInProgress:0,dispatched:0,noNeedExe:0
rename tick,after toRobInProgress:0
rename tick,before toRobInProgress:0,dispatched:0,noNeedExe:0
rename tick,after toRobInProgress:0
rename tick,before toRobInProgress:0,dispatched:0,noNeedExe:0
rename tick,after toRobInProgress:0
rename tick,before toRobInProgress:0,dispatched:0,noNeedExe:0
rename tick,after toRobInProgress:0
rename tick,before toRobInProgress:0,dispatched:0,noNeedExe:0
rename tick,after toRobInProgress:0
rename tick,before toRobInProgress:0,dispatched:0,noNeedExe:0
rename tick,after toRobInProgress:0
rename tick,before toRobInProgress:0,dispatched:0,noNeedExe:0
rename tick,after toRobInProgress:0
rename tick,before toRobInProgress:0,dispatched:0,noNeedExe:0
rename tick,after toRobInProgress:0
rename tick,before toRobInProgress:0,dispatched:0,noNeedExe:0
rename tick,after toRobInProgress:0
rename tick,before toRobInProgress:0,dispatched:0,noNeedExe:0
rename tick,after toRobInProgress:0
rename tick,before toRobInProgress:0,dispatched:0,noNeedExe:0
rename tick,after toRobInProgress:0
rename tick,before toRobInProgress:0,dispatched:0,noNeedExe:0
rename tick,after toRobInProgress:0
rename tick,before toRobInProgress:0,dispatched:0,noNeedExe:0
rename tick,after toRobInProgress:0
rename tick,before toRobInProgress:0,dispatched:0,noNeedExe:0
rename tick,after toRobInProgress:0
rename tick,before toRobInProgress:0,dispatched:0,noNeedExe:0
rename tick,after toRobInProgress:0
rename tick,before toRobInProgress:0,dispatched:0,noNeedExe:0
rename tick,after toRobInProgress:0
rename tick,before toRobInProgress:0,dispatched:0,noNeedExe:0
rename tick,after toRobInProgress:0
rename tick,before toRobInProgress:0,dispatched:0,noNeedExe:0
rename tick,after toRobInProgress:0
rename tick,before toRobInProgress:0,dispatched:0,noNeedExe:0
rename tick,after toRobInProgress:0
rename tick,before toRobInProgress:0,dispatched:0,noNeedExe:0
rename tick,after toRobInProgress:0
rename tick,before toRobInProgress:0,dispatched:0,noNeedExe:0
rename tick,after toRobInProgress:0
rename tick,before toRobInProgress:8,dispatched:0,noNeedExe:0
rename tick,after toRobInProgress:8
rename tick,before toRobInProgress:16,dispatched:0,noNeedExe:0
rename tick,after toRobInProgress:16
rename tick,before toRobInProgress:24,dispatched:0,noNeedExe:0
rename tick,after toRobInProgress:24
rename tick,before toRobInProgress:28,dispatched:0,noNeedExe:8
rename tick,after toRobInProgress:20
rename tick,before toRobInProgress:20,dispatched:0,noNeedExe:8
rename tick,after toRobInProgress:12
rename tick,before toRobInProgress:12,dispatched:0,noNeedExe:8
rename tick,after toRobInProgress:4
rename tick,before toRobInProgress:4,dispatched:0,noNeedExe:4
rename tick,after toRobInProgress:0
rename tick,before toRobInProgress:0,dispatched:0,noNeedExe:0
rename tick,after toRobInProgress:0
rename tick,before toRobInProgress:0,dispatched:0,noNeedExe:0
rename tick,after toRobInProgress:0
rename tick,before toRobInProgress:0,dispatched:0,noNeedExe:0
rename tick,after toRobInProgress:0
rename tick,before toRobInProgress:0,dispatched:0,noNeedExe:0
rename tick,after toRobInProgress:0
rename tick,before toRobInProgress:0,dispatched:0,noNeedExe:0
rename tick,after toRobInProgress:0
rename tick,before toRobInProgress:0,dispatched:0,noNeedExe:0
rename tick,after toRobInProgress:0
rename tick,before toRobInProgress:0,dispatched:0,noNeedExe:0
rename tick,after toRobInProgress:0
rename tick,before toRobInProgress:0,dispatched:0,noNeedExe:0
rename tick,after toRobInProgress:0
rename tick,before toRobInProgress:0,dispatched:0,noNeedExe:0
rename tick,after toRobInProgress:0
rename tick,before toRobInProgress:0,dispatched:0,noNeedExe:0
rename tick,after toRobInProgress:0
rename tick,before toRobInProgress:8,dispatched:0,noNeedExe:0
rename tick,after toRobInProgress:8
rename tick,before toRobInProgress:16,dispatched:0,noNeedExe:0
rename tick,after toRobInProgress:16
rename tick,before toRobInProgress:22,dispatched:0,noNeedExe:0
rename tick,after toRobInProgress:22
rename tick,before toRobInProgress:22,dispatched:0,noNeedExe:8
rename tick,after toRobInProgress:14
rename tick,before toRobInProgress:14,dispatched:0,noNeedExe:8
rename tick,after toRobInProgress:6
rename tick,before toRobInProgress:6,dispatched:0,noNeedExe:6
rename tick,after toRobInProgress:0
rename tick,before toRobInProgress:0,dispatched:0,noNeedExe:0
rename tick,after toRobInProgress:0
rename tick,before toRobInProgress:0,dispatched:0,noNeedExe:0
rename tick,after toRobInProgress:0
rename tick,before toRobInProgress:0,dispatched:0,noNeedExe:0
rename tick,after toRobInProgress:0
rename tick,before toRobInProgress:0,dispatched:0,noNeedExe:0
rename tick,after toRobInProgress:0
rename tick,before toRobInProgress:0,dispatched:0,noNeedExe:0
rename tick,after toRobInProgress:0
rename tick,before toRobInProgress:0,dispatched:0,noNeedExe:0
rename tick,after toRobInProgress:0
rename tick,before toRobInProgress:0,dispatched:0,noNeedExe:0
rename tick,after toRobInProgress:0
rename tick,before toRobInProgress:0,dispatched:0,noNeedExe:0
rename tick,after toRobInProgress:0
rename tick,before toRobInProgress:0,dispatched:0,noNeedExe:0
rename tick,after toRobInProgress:0
rename tick,before toRobInProgress:0,dispatched:0,noNeedExe:0
rename tick,after toRobInProgress:0
rename tick,before toRobInProgress:8,dispatched:0,noNeedExe:0
rename tick,after toRobInProgress:8
rename tick,before toRobInProgress:16,dispatched:0,noNeedExe:0
rename tick,after toRobInProgress:16
rename tick,before toRobInProgress:24,dispatched:0,noNeedExe:0
rename tick,after toRobInProgress:24
rename tick,before toRobInProgress:28,dispatched:0,noNeedExe:8
rename tick,after toRobInProgress:20
rename tick,before toRobInProgress:20,dispatched:0,noNeedExe:8
rename tick,after toRobInProgress:12
rename tick,before toRobInProgress:12,dispatched:0,noNeedExe:8
rename tick,after toRobInProgress:4
rename tick,before toRobInProgress:4,dispatched:0,noNeedExe:4
rename tick,after toRobInProgress:0
rename tick,before toRobInProgress:0,dispatched:0,noNeedExe:0
rename tick,after toRobInProgress:0
rename tick,before toRobInProgress:0,dispatched:0,noNeedExe:0
rename tick,after toRobInProgress:0
rename tick,before toRobInProgress:0,dispatched:0,noNeedExe:0
rename tick,after toRobInProgress:0
rename tick,before toRobInProgress:0,dispatched:0,noNeedExe:0
rename tick,after toRobInProgress:0
rename tick,before toRobInProgress:0,dispatched:0,noNeedExe:0
rename tick,after toRobInProgress:0
rename tick,before toRobInProgress:0,dispatched:0,noNeedExe:0
rename tick,after toRobInProgress:0
rename tick,before toRobInProgress:0,dispatched:0,noNeedExe:0
rename tick,after toRobInProgress:0
rename tick,before toRobInProgress:0,dispatched:0,noNeedExe:0
rename tick,after toRobInProgress:0
rename tick,before toRobInProgress:0,dispatched:0,noNeedExe:0
rename tick,after toRobInProgress:0
rename tick,before toRobInProgress:0,dispatched:0,noNeedExe:0
rename tick,after toRobInProgress:0
rename tick,before toRobInProgress:8,dispatched:0,noNeedExe:0
rename tick,after toRobInProgress:8
rename tick,before toRobInProgress:16,dispatched:0,noNeedExe:0
rename tick,after toRobInProgress:16
rename tick,before toRobInProgress:24,dispatched:0,noNeedExe:0
rename tick,after toRobInProgress:24
rename tick,before toRobInProgress:32,dispatched:0,noNeedExe:8
rename tick,after toRobInProgress:24
rename tick,before toRobInProgress:26,dispatched:0,noNeedExe:8
rename tick,after toRobInProgress:18
rename tick,before toRobInProgress:18,dispatched:0,noNeedExe:8
rename tick,after toRobInProgress:10
rename tick,before toRobInProgress:10,dispatched:0,noNeedExe:8
rename tick,after toRobInProgress:2
rename tick,before toRobInProgress:2,dispatched:0,noNeedExe:2
rename tick,after toRobInProgress:0
rename tick,before toRobInProgress:0,dispatched:0,noNeedExe:0
rename tick,after toRobInProgress:0
rename tick,before toRobInProgress:0,dispatched:0,noNeedExe:0
rename tick,after toRobInProgress:0
rename tick,before toRobInProgress:0,dispatched:0,noNeedExe:0
rename tick,after toRobInProgress:0
rename tick,before toRobInProgress:0,dispatched:0,noNeedExe:0
rename tick,after toRobInProgress:0
rename tick,before toRobInProgress:0,dispatched:0,noNeedExe:0
rename tick,after toRobInProgress:0
rename tick,before toRobInProgress:0,dispatched:0,noNeedExe:0
rename tick,after toRobInProgress:0
rename tick,before toRobInProgress:0,dispatched:0,noNeedExe:0
rename tick,after toRobInProgress:0
rename tick,before toRobInProgress:0,dispatched:0,noNeedExe:0
rename tick,after toRobInProgress:0
rename tick,before toRobInProgress:0,dispatched:0,noNeedExe:0
rename tick,after toRobInProgress:0
rename tick,before toRobInProgress:0,dispatched:0,noNeedExe:0
rename tick,after toRobInProgress:0
rename tick,before toRobInProgress:8,dispatched:0,noNeedExe:0
rename tick,after toRobInProgress:8
rename tick,before toRobInProgress:16,dispatched:0,noNeedExe:0
rename tick,after toRobInProgress:16
rename tick,before toRobInProgress:24,dispatched:0,noNeedExe:0
rename tick,after toRobInProgress:24
rename tick,before toRobInProgress:32,dispatched:0,noNeedExe:8
rename tick,after toRobInProgress:24
rename tick,before toRobInProgress:31,dispatched:0,noNeedExe:8
rename tick,after toRobInProgress:23
rename tick,before toRobInProgress:23,dispatched:0,noNeedExe:8
rename tick,after toRobInProgress:15
rename tick,before toRobInProgress:15,dispatched:4,noNeedExe:8
rename tick,after toRobInProgress:3
rename tick,before toRobInProgress:3,dispatched:4,noNeedExe:7
rename tick,after toRobInProgress:-8
gem5 Simulator System.  http://gem5.org
gem5 is copyrighted software; use the --copyright option for details.

gem5 compiled Mar 27 2019 11:28:05
gem5 started Mar 27 2019 11:28:38
gem5 executing on mprc-R730, pid 41318
command line: build/X86/gem5.opt --debug-flags=O3CPUAll --debug-start=30000 --debug-file=traceo3v2.out configs/example/se.py -c tests/test-progs/hello/bin/x86/linux/hello --cpu-type=DerivO3CPU --caches

Global frequency set at 1000000000000 ticks per second
**** REAL SIMULATION ****
rename tick,before toRobInProgress:0,dispatched:0,noNeedExe:0
rename tick,after toRobInProgress:0
rename tick,before toRobInProgress:0,dispatched:0,noNeedExe:0
rename tick,after toRobInProgress:0
rename tick,before toRobInProgress:0,dispatched:0,noNeedExe:0
rename tick,after toRobInProgress:0
rename tick,before toRobInProgress:0,dispatched:0,noNeedExe:0
rename tick,after toRobInProgress:0
rename tick,before toRobInProgress:0,dispatched:0,noNeedExe:0
rename tick,after toRobInProgress:0
rename tick,before toRobInProgress:0,dispatched:0,noNeedExe:0
rename tick,after toRobInProgress:0
rename tick,before toRobInProgress:0,dispatched:0,noNeedExe:0
rename tick,after toRobInProgress:0
rename tick,before toRobInProgress:0,dispatched:0,noNeedExe:0
rename tick,after toRobInProgress:0
rename tick,before toRobInProgress:0,dispatched:0,noNeedExe:0
rename tick,after toRobInProgress:0
rename tick,before toRobInProgress:0,dispatched:0,noNeedExe:0
rename tick,after toRobInProgress:0
rename tick,before toRobInProgress:0,dispatched:0,noNeedExe:0
rename tick,after toRobInProgress:0
rename tick,before toRobInProgress:0,dispatched:0,noNeedExe:0
rename tick,after toRobInProgress:0
rename tick,before toRobInProgress:0,dispatched:0,noNeedExe:0
rename tick,after toRobInProgress:0
rename tick,before toRobInProgress:0,dispatched:0,noNeedExe:0
rename tick,after toRobInProgress:0
rename tick,before toRobInProgress:8,dispatched:0,noNeedExe:0
rename tick,after toRobInProgress:8
rename tick,before toRobInProgress:16,dispatched:0,noNeedExe:0
rename tick,after toRobInProgress:16
rename tick,before toRobInProgress:21,dispatched:0,noNeedExe:0
rename tick,after toRobInProgress:21
rename tick,before toRobInProgress:21,dispatched:8,noNeedExe:0
rename tick,after toRobInProgress:13
rename tick,before toRobInProgress:13,dispatched:8,noNeedExe:0
rename tick,after toRobInProgress:5
rename tick,before toRobInProgress:5,dispatched:5,noNeedExe:0
rename tick,after toRobInProgress:0
rename tick,before toRobInProgress:0,dispatched:0,noNeedExe:0
rename tick,after toRobInProgress:0
rename tick,before toRobInProgress:0,dispatched:0,noNeedExe:0
rename tick,after toRobInProgress:0
rename tick,before toRobInProgress:0,dispatched:0,noNeedExe:0
rename tick,after toRobInProgress:0
rename tick,before toRobInProgress:0,dispatched:0,noNeedExe:0
rename tick,after toRobInProgress:0
rename tick,before toRobInProgress:0,dispatched:0,noNeedExe:0
rename tick,after toRobInProgress:0
rename tick,before toRobInProgress:0,dispatched:0,noNeedExe:0
rename tick,after toRobInProgress:0
rename tick,before toRobInProgress:0,dispatched:0,noNeedExe:0
rename tick,after toRobInProgress:0
rename tick,before toRobInProgress:0,dispatched:0,noNeedExe:0
rename tick,after toRobInProgress:0
rename tick,before toRobInProgress:0,dispatched:0,noNeedExe:0
rename tick,after toRobInProgress:0
rename tick,before toRobInProgress:0,dispatched:0,noNeedExe:0
rename tick,after toRobInProgress:0
rename tick,before toRobInProgress:0,dispatched:0,noNeedExe:0
rename tick,after toRobInProgress:0
rename tick,before toRobInProgress:0,dispatched:0,noNeedExe:0
rename tick,after toRobInProgress:0
rename tick,before toRobInProgress:0,dispatched:0,noNeedExe:0
rename tick,after toRobInProgress:0
rename tick,before toRobInProgress:0,dispatched:0,noNeedExe:0
rename tick,after toRobInProgress:0
rename tick,before toRobInProgress:0,dispatched:0,noNeedExe:0
rename tick,after toRobInProgress:0
rename tick,before toRobInProgress:0,dispatched:0,noNeedExe:0
rename tick,after toRobInProgress:0
rename tick,before toRobInProgress:0,dispatched:0,noNeedExe:0
rename tick,after toRobInProgress:0
rename tick,before toRobInProgress:0,dispatched:0,noNeedExe:0
rename tick,after toRobInProgress:0
rename tick,before toRobInProgress:0,dispatched:0,noNeedExe:0
rename tick,after toRobInProgress:0
rename tick,before toRobInProgress:0,dispatched:0,noNeedExe:0
rename tick,after toRobInProgress:0
rename tick,before toRobInProgress:0,dispatched:0,noNeedExe:0
rename tick,after toRobInProgress:0
rename tick,before toRobInProgress:0,dispatched:0,noNeedExe:0
rename tick,after toRobInProgress:0
rename tick,before toRobInProgress:0,dispatched:0,noNeedExe:0
rename tick,after toRobInProgress:0
rename tick,before toRobInProgress:0,dispatched:0,noNeedExe:0
rename tick,after toRobInProgress:0
rename tick,before toRobInProgress:0,dispatched:0,noNeedExe:0
rename tick,after toRobInProgress:0
rename tick,before toRobInProgress:0,dispatched:0,noNeedExe:0
rename tick,after toRobInProgress:0
rename tick,before toRobInProgress:0,dispatched:0,noNeedExe:0
rename tick,after toRobInProgress:0
rename tick,before toRobInProgress:0,dispatched:0,noNeedExe:0
rename tick,after toRobInProgress:0
rename tick,before toRobInProgress:0,dispatched:0,noNeedExe:0
rename tick,after toRobInProgress:0
rename tick,before toRobInProgress:0,dispatched:0,noNeedExe:0
rename tick,after toRobInProgress:0
rename tick,before toRobInProgress:0,dispatched:0,noNeedExe:0
rename tick,after toRobInProgress:0
rename tick,before toRobInProgress:0,dispatched:0,noNeedExe:0
rename tick,after toRobInProgress:0
rename tick,before toRobInProgress:0,dispatched:0,noNeedExe:0
rename tick,after toRobInProgress:0
rename tick,before toRobInProgress:8,dispatched:0,noNeedExe:0
rename tick,after toRobInProgress:8
rename tick,before toRobInProgress:16,dispatched:0,noNeedExe:0
rename tick,after toRobInProgress:16
rename tick,before toRobInProgress:24,dispatched:0,noNeedExe:0
rename tick,after toRobInProgress:24
rename tick,before toRobInProgress:28,dispatched:0,noNeedExe:8
rename tick,after toRobInProgress:20
rename tick,before toRobInProgress:20,dispatched:0,noNeedExe:8
rename tick,after toRobInProgress:12
rename tick,before toRobInProgress:12,dispatched:0,noNeedExe:8
rename tick,after toRobInProgress:4
rename tick,before toRobInProgress:4,dispatched:0,noNeedExe:4
rename tick,after toRobInProgress:0
rename tick,before toRobInProgress:0,dispatched:0,noNeedExe:0
rename tick,after toRobInProgress:0
rename tick,before toRobInProgress:0,dispatched:0,noNeedExe:0
rename tick,after toRobInProgress:0
rename tick,before toRobInProgress:0,dispatched:0,noNeedExe:0
rename tick,after toRobInProgress:0
rename tick,before toRobInProgress:0,dispatched:0,noNeedExe:0
rename tick,after toRobInProgress:0
rename tick,before toRobInProgress:0,dispatched:0,noNeedExe:0
rename tick,after toRobInProgress:0
rename tick,before toRobInProgress:0,dispatched:0,noNeedExe:0
rename tick,after toRobInProgress:0
rename tick,before toRobInProgress:0,dispatched:0,noNeedExe:0
rename tick,after toRobInProgress:0
rename tick,before toRobInProgress:0,dispatched:0,noNeedExe:0
rename tick,after toRobInProgress:0
rename tick,before toRobInProgress:0,dispatched:0,noNeedExe:0
rename tick,after toRobInProgress:0
rename tick,before toRobInProgress:0,dispatched:0,noNeedExe:0
rename tick,after toRobInProgress:0
rename tick,before toRobInProgress:8,dispatched:0,noNeedExe:0
rename tick,after toRobInProgress:8
rename tick,before toRobInProgress:16,dispatched:0,noNeedExe:0
rename tick,after toRobInProgress:16
rename tick,before toRobInProgress:22,dispatched:0,noNeedExe:0
rename tick,after toRobInProgress:22
rename tick,before toRobInProgress:22,dispatched:0,noNeedExe:8
rename tick,after toRobInProgress:14
rename tick,before toRobInProgress:14,dispatched:0,noNeedExe:8
rename tick,after toRobInProgress:6
rename tick,before toRobInProgress:6,dispatched:0,noNeedExe:6
rename tick,after toRobInProgress:0
rename tick,before toRobInProgress:0,dispatched:0,noNeedExe:0
rename tick,after toRobInProgress:0
rename tick,before toRobInProgress:0,dispatched:0,noNeedExe:0
rename tick,after toRobInProgress:0
rename tick,before toRobInProgress:0,dispatched:0,noNeedExe:0
rename tick,after toRobInProgress:0
rename tick,before toRobInProgress:0,dispatched:0,noNeedExe:0
rename tick,after toRobInProgress:0
rename tick,before toRobInProgress:0,dispatched:0,noNeedExe:0
rename tick,after toRobInProgress:0
rename tick,before toRobInProgress:0,dispatched:0,noNeedExe:0
rename tick,after toRobInProgress:0
rename tick,before toRobInProgress:0,dispatched:0,noNeedExe:0
rename tick,after toRobInProgress:0
rename tick,before toRobInProgress:0,dispatched:0,noNeedExe:0
rename tick,after toRobInProgress:0
rename tick,before toRobInProgress:0,dispatched:0,noNeedExe:0
rename tick,after toRobInProgress:0
rename tick,before toRobInProgress:0,dispatched:0,noNeedExe:0
rename tick,after toRobInProgress:0
rename tick,before toRobInProgress:8,dispatched:0,noNeedExe:0
rename tick,after toRobInProgress:8
rename tick,before toRobInProgress:16,dispatched:0,noNeedExe:0
rename tick,after toRobInProgress:16
rename tick,before toRobInProgress:24,dispatched:0,noNeedExe:0
rename tick,after toRobInProgress:24
rename tick,before toRobInProgress:28,dispatched:0,noNeedExe:8
rename tick,after toRobInProgress:20
rename tick,before toRobInProgress:20,dispatched:0,noNeedExe:8
rename tick,after toRobInProgress:12
rename tick,before toRobInProgress:12,dispatched:0,noNeedExe:8
rename tick,after toRobInProgress:4
rename tick,before toRobInProgress:4,dispatched:0,noNeedExe:4
rename tick,after toRobInProgress:0
rename tick,before toRobInProgress:0,dispatched:0,noNeedExe:0
rename tick,after toRobInProgress:0
rename tick,before toRobInProgress:0,dispatched:0,noNeedExe:0
rename tick,after toRobInProgress:0
rename tick,before toRobInProgress:0,dispatched:0,noNeedExe:0
rename tick,after toRobInProgress:0
rename tick,before toRobInProgress:0,dispatched:0,noNeedExe:0
rename tick,after toRobInProgress:0
rename tick,before toRobInProgress:0,dispatched:0,noNeedExe:0
rename tick,after toRobInProgress:0
rename tick,before toRobInProgress:0,dispatched:0,noNeedExe:0
rename tick,after toRobInProgress:0
rename tick,before toRobInProgress:0,dispatched:0,noNeedExe:0
rename tick,after toRobInProgress:0
rename tick,before toRobInProgress:0,dispatched:0,noNeedExe:0
rename tick,after toRobInProgress:0
rename tick,before toRobInProgress:0,dispatched:0,noNeedExe:0
rename tick,after toRobInProgress:0
rename tick,before toRobInProgress:0,dispatched:0,noNeedExe:0
rename tick,after toRobInProgress:0
rename tick,before toRobInProgress:8,dispatched:0,noNeedExe:0
rename tick,after toRobInProgress:8
rename tick,before toRobInProgress:16,dispatched:0,noNeedExe:0
rename tick,after toRobInProgress:16
rename tick,before toRobInProgress:24,dispatched:0,noNeedExe:0
rename tick,after toRobInProgress:24
rename tick,before toRobInProgress:32,dispatched:0,noNeedExe:8
rename tick,after toRobInProgress:24
rename tick,before toRobInProgress:26,dispatched:0,noNeedExe:8
rename tick,after toRobInProgress:18
rename tick,before toRobInProgress:18,dispatched:0,noNeedExe:8
rename tick,after toRobInProgress:10
rename tick,before toRobInProgress:10,dispatched:0,noNeedExe:8
rename tick,after toRobInProgress:2
rename tick,before toRobInProgress:2,dispatched:0,noNeedExe:2
rename tick,after toRobInProgress:0
rename tick,before toRobInProgress:0,dispatched:0,noNeedExe:0
rename tick,after toRobInProgress:0
rename tick,before toRobInProgress:0,dispatched:0,noNeedExe:0
rename tick,after toRobInProgress:0
rename tick,before toRobInProgress:0,dispatched:0,noNeedExe:0
rename tick,after toRobInProgress:0
rename tick,before toRobInProgress:0,dispatched:0,noNeedExe:0
rename tick,after toRobInProgress:0
rename tick,before toRobInProgress:0,dispatched:0,noNeedExe:0
rename tick,after toRobInProgress:0
rename tick,before toRobInProgress:0,dispatched:0,noNeedExe:0
rename tick,after toRobInProgress:0
rename tick,before toRobInProgress:0,dispatched:0,noNeedExe:0
rename tick,after toRobInProgress:0
rename tick,before toRobInProgress:0,dispatched:0,noNeedExe:0
rename tick,after toRobInProgress:0
rename tick,before toRobInProgress:0,dispatched:0,noNeedExe:0
rename tick,after toRobInProgress:0
rename tick,before toRobInProgress:0,dispatched:0,noNeedExe:0
rename tick,after toRobInProgress:0
rename tick,before toRobInProgress:8,dispatched:0,noNeedExe:0
rename tick,after toRobInProgress:8
rename tick,before toRobInProgress:16,dispatched:0,noNeedExe:0
rename tick,after toRobInProgress:16
rename tick,before toRobInProgress:24,dispatched:0,noNeedExe:0
rename tick,after toRobInProgress:24
rename tick,before toRobInProgress:32,dispatched:0,noNeedExe:8
rename tick,after toRobInProgress:24
rename tick,before toRobInProgress:31,dispatched:0,noNeedExe:8
rename tick,after toRobInProgress:23
rename tick,before toRobInProgress:23,dispatched:0,noNeedExe:8
rename tick,after toRobInProgress:15
rename tick,before toRobInProgress:15,dispatched:4,noNeedExe:8
rename tick,after toRobInProgress:3
rename tick,before toRobInProgress:3,dispatched:4,noNeedExe:7
rename tick,after toRobInProgress:-8
