gem5 Simulator System.  http://gem5.org
gem5 is copyrighted software; use the --copyright option for details.

gem5 compiled Mar 27 2019 20:57:04
gem5 started Mar 27 2019 20:57:48
gem5 executing on mprc-R730, pid 9923
command line: build/X86/gem5.opt --debug-flags=O3CPUAll --debug-start=30000 --debug-file=traceo3v2.out configs/example/se.py -c tests/test-progs/hello/bin/x86/linux/hello --cpu-type=DerivO3CPU --caches

Global frequency set at 1000000000000 ticks per second
**** REAL SIMULATION ****
rename tick,before toRobInProgress:0,dispatched:0,toRobCount:0
rename tick,after toRobInProgress:0
rename tick,before toRobInProgress:0,dispatched:0,toRobCount:0
rename tick,after toRobInProgress:0
rename tick,before toRobInProgress:0,dispatched:0,toRobCount:0
rename tick,after toRobInProgress:0
rename tick,before toRobInProgress:0,dispatched:0,toRobCount:0
rename tick,after toRobInProgress:0
rename tick,before toRobInProgress:0,dispatched:0,toRobCount:0
rename tick,after toRobInProgress:0
rename tick,before toRobInProgress:0,dispatched:0,toRobCount:0
rename tick,after toRobInProgress:0
rename tick,before toRobInProgress:0,dispatched:0,toRobCount:0
rename tick,after toRobInProgress:0
rename tick,before toRobInProgress:0,dispatched:0,toRobCount:0
rename tick,after toRobInProgress:0
rename tick,before toRobInProgress:0,dispatched:0,toRobCount:0
rename tick,after toRobInProgress:0
rename tick,before toRobInProgress:0,dispatched:0,toRobCount:0
rename tick,after toRobInProgress:0
rename tick,before toRobInProgress:0,dispatched:0,toRobCount:0
rename tick,after toRobInProgress:0
rename tick,before toRobInProgress:0,dispatched:0,toRobCount:0
rename tick,after toRobInProgress:0
rename tick,before toRobInProgress:0,dispatched:0,toRobCount:0
rename tick,after toRobInProgress:0
rename tick,before toRobInProgress:0,dispatched:0,toRobCount:0
rename tick,after toRobInProgress:0
rename tick,before toRobInProgress:8,dispatched:0,toRobCount:0
rename tick,after toRobInProgress:8
rename tick,before toRobInProgress:16,dispatched:0,toRobCount:0
rename tick,after toRobInProgress:16
rename tick,before toRobInProgress:21,dispatched:0,toRobCount:0
rename tick,after toRobInProgress:21
rename tick,before toRobInProgress:21,dispatched:8,toRobCount:8
rename tick,after toRobInProgress:13
rename tick,before toRobInProgress:13,dispatched:8,toRobCount:8
rename tick,after toRobInProgress:5
rename tick,before toRobInProgress:5,dispatched:5,toRobCount:5
rename tick,after toRobInProgress:0
rename tick,before toRobInProgress:0,dispatched:0,toRobCount:0
rename tick,after toRobInProgress:0
rename tick,before toRobInProgress:0,dispatched:0,toRobCount:0
rename tick,after toRobInProgress:0
rename tick,before toRobInProgress:0,dispatched:0,toRobCount:0
rename tick,after toRobInProgress:0
rename tick,before toRobInProgress:0,dispatched:0,toRobCount:0
rename tick,after toRobInProgress:0
rename tick,before toRobInProgress:0,dispatched:0,toRobCount:0
rename tick,after toRobInProgress:0
rename tick,before toRobInProgress:0,dispatched:0,toRobCount:0
rename tick,after toRobInProgress:0
rename tick,before toRobInProgress:0,dispatched:0,toRobCount:0
rename tick,after toRobInProgress:0
rename tick,before toRobInProgress:0,dispatched:0,toRobCount:0
rename tick,after toRobInProgress:0
rename tick,before toRobInProgress:0,dispatched:0,toRobCount:0
rename tick,after toRobInProgress:0
rename tick,before toRobInProgress:0,dispatched:0,toRobCount:0
rename tick,after toRobInProgress:0
rename tick,before toRobInProgress:0,dispatched:0,toRobCount:0
rename tick,after toRobInProgress:0
rename tick,before toRobInProgress:0,dispatched:0,toRobCount:0
rename tick,after toRobInProgress:0
rename tick,before toRobInProgress:0,dispatched:0,toRobCount:0
rename tick,after toRobInProgress:0
rename tick,before toRobInProgress:0,dispatched:0,toRobCount:0
rename tick,after toRobInProgress:0
rename tick,before toRobInProgress:0,dispatched:0,toRobCount:0
rename tick,after toRobInProgress:0
rename tick,before toRobInProgress:0,dispatched:0,toRobCount:0
rename tick,after toRobInProgress:0
rename tick,before toRobInProgress:0,dispatched:0,toRobCount:0
rename tick,after toRobInProgress:0
rename tick,before toRobInProgress:0,dispatched:0,toRobCount:0
rename tick,after toRobInProgress:0
rename tick,before toRobInProgress:0,dispatched:0,toRobCount:0
rename tick,after toRobInProgress:0
rename tick,before toRobInProgress:0,dispatched:0,toRobCount:0
rename tick,after toRobInProgress:0
rename tick,before toRobInProgress:0,dispatched:0,toRobCount:0
rename tick,after toRobInProgress:0
rename tick,before toRobInProgress:0,dispatched:0,toRobCount:0
rename tick,after toRobInProgress:0
rename tick,before toRobInProgress:0,dispatched:0,toRobCount:0
rename tick,after toRobInProgress:0
rename tick,before toRobInProgress:0,dispatched:0,toRobCount:0
rename tick,after toRobInProgress:0
rename tick,before toRobInProgress:0,dispatched:0,toRobCount:0
rename tick,after toRobInProgress:0
rename tick,before toRobInProgress:0,dispatched:0,toRobCount:0
rename tick,after toRobInProgress:0
rename tick,before toRobInProgress:0,dispatched:0,toRobCount:0
rename tick,after toRobInProgress:0
rename tick,before toRobInProgress:0,dispatched:0,toRobCount:0
rename tick,after toRobInProgress:0
rename tick,before toRobInProgress:0,dispatched:0,toRobCount:0
rename tick,after toRobInProgress:0
rename tick,before toRobInProgress:0,dispatched:0,toRobCount:0
rename tick,after toRobInProgress:0
rename tick,before toRobInProgress:0,dispatched:0,toRobCount:0
rename tick,after toRobInProgress:0
rename tick,before toRobInProgress:0,dispatched:0,toRobCount:0
rename tick,after toRobInProgress:0
rename tick,before toRobInProgress:0,dispatched:0,toRobCount:0
rename tick,after toRobInProgress:0
rename tick,before toRobInProgress:8,dispatched:0,toRobCount:0
rename tick,after toRobInProgress:8
rename tick,before toRobInProgress:16,dispatched:0,toRobCount:0
rename tick,after toRobInProgress:16
rename tick,before toRobInProgress:24,dispatched:0,toRobCount:0
rename tick,after toRobInProgress:24
rename tick,before toRobInProgress:28,dispatched:8,toRobCount:4
rename tick,after toRobInProgress:24
dependGraph[0]: No producer. consumer: 
dependGraph[1]: No producer. consumer: 
dependGraph[2]: No producer. consumer: 
dependGraph[3]: No producer. consumer: 
dependGraph[4]: No producer. consumer: 
dependGraph[5]: No producer. consumer: 
dependGraph[6]: No producer. consumer: 
dependGraph[7]: No producer. consumer: 
dependGraph[8]: No producer. consumer: 
dependGraph[9]: No producer. consumer: 
dependGraph[10]: No producer. consumer: 
dependGraph[11]: No producer. consumer: 
dependGraph[12]: No producer. consumer: 
dependGraph[13]: No producer. consumer: 
dependGraph[14]: No producer. consumer: 
dependGraph[15]: No producer. consumer: 
dependGraph[16]: No producer. consumer: 
dependGraph[17]: No producer. consumer: 
dependGraph[18]: No producer. consumer: 
dependGraph[19]: No producer. consumer: 
dependGraph[20]: No producer. consumer: 
dependGraph[21]: No producer. consumer: 
dependGraph[22]: No producer. consumer: 
dependGraph[23]: No producer. consumer: 
dependGraph[24]: No producer. consumer: 
dependGraph[25]: No producer. consumer: 
dependGraph[26]: No producer. consumer: 
dependGraph[27]: No producer. consumer: 
dependGraph[28]: No producer. consumer: 
dependGraph[29]: No producer. consumer: 
dependGraph[30]: No producer. consumer: 
dependGraph[31]: No producer. consumer: 
dependGraph[32]: No producer. consumer: 
dependGraph[33]: No producer. consumer: 
dependGraph[34]: No producer. consumer: 
dependGraph[35]: No producer. consumer: 
dependGraph[36]: No producer. consumer: 
dependGraph[37]: No producer. consumer: 
dependGraph[38]: No producer. consumer: 
dependGraph[39]: No producer. consumer: 
dependGraph[40]: No producer. consumer: 
dependGraph[41]: No producer. consumer: 
dependGraph[42]: No producer. consumer: 
dependGraph[43]: No producer. consumer: 
dependGraph[44]: No producer. consumer: 
dependGraph[45]: No producer. consumer: 
dependGraph[46]: No producer. consumer: 
dependGraph[47]: No producer. consumer: 
dependGraph[48]: No producer. consumer: 
dependGraph[49]: No producer. consumer: 
dependGraph[50]: No producer. consumer: 
dependGraph[51]: No producer. consumer: 
dependGraph[52]: No producer. consumer: 
dependGraph[53]: No producer. consumer: 
dependGraph[54]: producer: (0x409a08=>0x409a0a).(1=>2) [sn:27] consumer: (0x409a14=>0x409a15).(1=>2) [sn:35] (0x409a14=>0x409a15).(0=>1) [sn:34] (0x409a0d=>0x409a0f).(0=>1) [sn:29] 
dependGraph[55]: producer: (0x409a0a=>0x409a0d).(0=>1) [sn:28] consumer: 
dependGraph[56]: producer: (0x409a14=>0x409a15).(1=>2) [sn:35] consumer: (0x409a15=>0x409a16).(1=>2) [sn:37] (0x409a15=>0x409a16).(0=>1) [sn:36] 
dependGraph[57]: No producer. consumer: (0x409a12=>0x409a14).(1=>2) [sn:33] (0x409a12=>0x409a14).(0=>1) [sn:32] (0x409a0d=>0x409a0f).(1=>2) [sn:30] (0x409a00=>0x409a02).(1=>2) [sn:23] (0x409a00=>0x409a02).(0=>1) [sn:22] 
dependGraph[58]: producer: (0x409a00=>0x409a02).(1=>2) [sn:23] consumer: 
dependGraph[59]: producer: (0x409a02=>0x409a05).(0=>1) [sn:24] consumer: 
dependGraph[60]: producer: (0x409a05=>0x409a08).(0=>1) [sn:25] consumer: 
dependGraph[61]: No producer. consumer: 
dependGraph[62]: No producer. consumer: 
dependGraph[63]: producer: (0x409a0d=>0x409a0f).(1=>2) [sn:30] consumer: 
dependGraph[64]: producer: (0x409a0f=>0x409a12).(0=>1) [sn:31] consumer: 
dependGraph[65]: producer: (0x409a12=>0x409a14).(1=>2) [sn:33] consumer: 
dependGraph[66]: No producer. consumer: 
dependGraph[67]: No producer. consumer: 
dependGraph[68]: No producer. consumer: 
dependGraph[69]: No producer. consumer: 
dependGraph[70]: No producer. consumer: 
dependGraph[71]: No producer. consumer: 
dependGraph[72]: No producer. consumer: 
dependGraph[73]: No producer. consumer: 
dependGraph[74]: No producer. consumer: 
dependGraph[75]: No producer. consumer: 
dependGraph[76]: No producer. consumer: 
dependGraph[77]: No producer. consumer: 
dependGraph[78]: No producer. consumer: 
dependGraph[79]: No producer. consumer: 
dependGraph[80]: No producer. consumer: 
dependGraph[81]: No producer. consumer: 
dependGraph[82]: No producer. consumer: 
dependGraph[83]: No producer. consumer: 
dependGraph[84]: No producer. consumer: 
dependGraph[85]: No producer. consumer: 
dependGraph[86]: No producer. consumer: 
dependGraph[87]: No producer. consumer: 
dependGraph[88]: No producer. consumer: 
dependGraph[89]: No producer. consumer: 
dependGraph[90]: No producer. consumer: 
dependGraph[91]: No producer. consumer: 
dependGraph[92]: No producer. consumer: 
dependGraph[93]: No producer. consumer: 
dependGraph[94]: No producer. consumer: 
dependGraph[95]: No producer. consumer: 
dependGraph[96]: No producer. consumer: 
dependGraph[97]: No producer. consumer: 
dependGraph[98]: No producer. consumer: 
dependGraph[99]: No producer. consumer: 
dependGraph[100]: No producer. consumer: 
dependGraph[101]: No producer. consumer: 
dependGraph[102]: No producer. consumer: 
dependGraph[103]: No producer. consumer: 
dependGraph[104]: No producer. consumer: 
dependGraph[105]: No producer. consumer: 
dependGraph[106]: No producer. consumer: 
dependGraph[107]: No producer. consumer: 
dependGraph[108]: No producer. consumer: 
dependGraph[109]: No producer. consumer: 
dependGraph[110]: No producer. consumer: 
dependGraph[111]: No producer. consumer: 
dependGraph[112]: No producer. consumer: 
dependGraph[113]: No producer. consumer: 
dependGraph[114]: No producer. consumer: 
dependGraph[115]: No producer. consumer: 
dependGraph[116]: No producer. consumer: 
dependGraph[117]: No producer. consumer: 
dependGraph[118]: No producer. consumer: 
dependGraph[119]: No producer. consumer: 
dependGraph[120]: No producer. consumer: 
dependGraph[121]: No producer. consumer: 
dependGraph[122]: No producer. consumer: 
dependGraph[123]: No producer. consumer: 
dependGraph[124]: No producer. consumer: 
dependGraph[125]: No producer. consumer: 
dependGraph[126]: No producer. consumer: 
dependGraph[127]: No producer. consumer: 
dependGraph[128]: No producer. consumer: 
dependGraph[129]: No producer. consumer: 
dependGraph[130]: No producer. consumer: 
dependGraph[131]: No producer. consumer: 
dependGraph[132]: No producer. consumer: 
dependGraph[133]: No producer. consumer: 
dependGraph[134]: No producer. consumer: 
dependGraph[135]: No producer. consumer: 
dependGraph[136]: No producer. consumer: 
dependGraph[137]: No producer. consumer: 
dependGraph[138]: No producer. consumer: 
dependGraph[139]: No producer. consumer: 
dependGraph[140]: No producer. consumer: 
dependGraph[141]: No producer. consumer: 
dependGraph[142]: No producer. consumer: 
dependGraph[143]: No producer. consumer: 
dependGraph[144]: No producer. consumer: 
dependGraph[145]: No producer. consumer: 
dependGraph[146]: No producer. consumer: 
dependGraph[147]: No producer. consumer: 
dependGraph[148]: No producer. consumer: 
dependGraph[149]: No producer. consumer: 
dependGraph[150]: No producer. consumer: 
dependGraph[151]: No producer. consumer: 
dependGraph[152]: No producer. consumer: 
dependGraph[153]: No producer. consumer: 
dependGraph[154]: No producer. consumer: 
dependGraph[155]: No producer. consumer: 
dependGraph[156]: No producer. consumer: 
dependGraph[157]: No producer. consumer: 
dependGraph[158]: No producer. consumer: 
dependGraph[159]: No producer. consumer: 
dependGraph[160]: No producer. consumer: 
dependGraph[161]: No producer. consumer: 
dependGraph[162]: No producer. consumer: 
dependGraph[163]: No producer. consumer: 
dependGraph[164]: No producer. consumer: 
dependGraph[165]: No producer. consumer: 
dependGraph[166]: No producer. consumer: 
dependGraph[167]: No producer. consumer: 
dependGraph[168]: No producer. consumer: 
dependGraph[169]: No producer. consumer: 
dependGraph[170]: No producer. consumer: 
dependGraph[171]: No producer. consumer: 
dependGraph[172]: No producer. consumer: 
dependGraph[173]: No producer. consumer: 
dependGraph[174]: No producer. consumer: 
dependGraph[175]: No producer. consumer: 
dependGraph[176]: No producer. consumer: 
dependGraph[177]: No producer. consumer: 
dependGraph[178]: No producer. consumer: 
dependGraph[179]: No producer. consumer: 
dependGraph[180]: No producer. consumer: 
dependGraph[181]: No producer. consumer: 
dependGraph[182]: No producer. consumer: 
dependGraph[183]: No producer. consumer: 
dependGraph[184]: No producer. consumer: 
dependGraph[185]: No producer. consumer: 
dependGraph[186]: No producer. consumer: 
dependGraph[187]: No producer. consumer: 
dependGraph[188]: No producer. consumer: 
dependGraph[189]: No producer. consumer: 
dependGraph[190]: No producer. consumer: 
dependGraph[191]: No producer. consumer: 
dependGraph[192]: No producer. consumer: 
dependGraph[193]: No producer. consumer: 
dependGraph[194]: No producer. consumer: 
dependGraph[195]: No producer. consumer: 
dependGraph[196]: No producer. consumer: 
dependGraph[197]: No producer. consumer: 
dependGraph[198]: No producer. consumer: 
dependGraph[199]: No producer. consumer: 
dependGraph[200]: No producer. consumer: 
dependGraph[201]: No producer. consumer: 
dependGraph[202]: No producer. consumer: 
dependGraph[203]: No producer. consumer: 
dependGraph[204]: No producer. consumer: 
dependGraph[205]: No producer. consumer: 
dependGraph[206]: No producer. consumer: 
dependGraph[207]: No producer. consumer: 
dependGraph[208]: No producer. consumer: 
dependGraph[209]: No producer. consumer: 
dependGraph[210]: No producer. consumer: 
dependGraph[211]: No producer. consumer: 
dependGraph[212]: No producer. consumer: 
dependGraph[213]: No producer. consumer: 
dependGraph[214]: No producer. consumer: 
dependGraph[215]: No producer. consumer: 
dependGraph[216]: No producer. consumer: 
dependGraph[217]: No producer. consumer: 
dependGraph[218]: No producer. consumer: 
dependGraph[219]: No producer. consumer: 
dependGraph[220]: No producer. consumer: 
dependGraph[221]: No producer. consumer: 
dependGraph[222]: No producer. consumer: 
dependGraph[223]: No producer. consumer: 
dependGraph[224]: No producer. consumer: 
dependGraph[225]: No producer. consumer: 
dependGraph[226]: No producer. consumer: 
dependGraph[227]: No producer. consumer: 
dependGraph[228]: No producer. consumer: 
dependGraph[229]: No producer. consumer: 
dependGraph[230]: No producer. consumer: 
dependGraph[231]: No producer. consumer: 
dependGraph[232]: No producer. consumer: 
dependGraph[233]: No producer. consumer: 
dependGraph[234]: No producer. consumer: 
dependGraph[235]: No producer. consumer: 
dependGraph[236]: No producer. consumer: 
dependGraph[237]: No producer. consumer: 
dependGraph[238]: No producer. consumer: 
dependGraph[239]: No producer. consumer: 
dependGraph[240]: No producer. consumer: 
dependGraph[241]: No producer. consumer: 
dependGraph[242]: No producer. consumer: 
dependGraph[243]: No producer. consumer: 
dependGraph[244]: No producer. consumer: 
dependGraph[245]: No producer. consumer: 
dependGraph[246]: No producer. consumer: 
dependGraph[247]: No producer. consumer: 
dependGraph[248]: No producer. consumer: 
dependGraph[249]: No producer. consumer: 
dependGraph[250]: No producer. consumer: 
dependGraph[251]: No producer. consumer: 
dependGraph[252]: No producer. consumer: 
dependGraph[253]: No producer. consumer: 
dependGraph[254]: No producer. consumer: 
dependGraph[255]: No producer. consumer: 
dependGraph[256]: No producer. consumer: 
dependGraph[257]: No producer. consumer: 
dependGraph[258]: No producer. consumer: 
dependGraph[259]: No producer. consumer: 
dependGraph[260]: No producer. consumer: 
dependGraph[261]: No producer. consumer: 
dependGraph[262]: No producer. consumer: 
dependGraph[263]: No producer. consumer: 
dependGraph[264]: No producer. consumer: 
dependGraph[265]: No producer. consumer: 
dependGraph[266]: No producer. consumer: 
dependGraph[267]: No producer. consumer: 
dependGraph[268]: No producer. consumer: 
dependGraph[269]: No producer. consumer: 
dependGraph[270]: No producer. consumer: 
dependGraph[271]: No producer. consumer: 
dependGraph[272]: No producer. consumer: 
dependGraph[273]: No producer. consumer: 
dependGraph[274]: No producer. consumer: 
dependGraph[275]: No producer. consumer: 
dependGraph[276]: No producer. consumer: 
dependGraph[277]: No producer. consumer: 
dependGraph[278]: No producer. consumer: 
dependGraph[279]: No producer. consumer: 
dependGraph[280]: No producer. consumer: 
dependGraph[281]: No producer. consumer: 
dependGraph[282]: No producer. consumer: 
dependGraph[283]: No producer. consumer: 
dependGraph[284]: No producer. consumer: 
dependGraph[285]: No producer. consumer: 
dependGraph[286]: No producer. consumer: 
dependGraph[287]: No producer. consumer: 
dependGraph[288]: No producer. consumer: 
dependGraph[289]: No producer. consumer: 
dependGraph[290]: No producer. consumer: 
dependGraph[291]: No producer. consumer: 
dependGraph[292]: No producer. consumer: 
dependGraph[293]: No producer. consumer: 
dependGraph[294]: No producer. consumer: 
dependGraph[295]: No producer. consumer: 
dependGraph[296]: No producer. consumer: 
dependGraph[297]: No producer. consumer: 
dependGraph[298]: No producer. consumer: 
dependGraph[299]: No producer. consumer: 
dependGraph[300]: No producer. consumer: 
dependGraph[301]: No producer. consumer: 
dependGraph[302]: No producer. consumer: 
dependGraph[303]: No producer. consumer: 
dependGraph[304]: No producer. consumer: 
dependGraph[305]: No producer. consumer: 
dependGraph[306]: No producer. consumer: 
dependGraph[307]: No producer. consumer: 
dependGraph[308]: No producer. consumer: 
dependGraph[309]: No producer. consumer: 
dependGraph[310]: No producer. consumer: 
dependGraph[311]: No producer. consumer: 
dependGraph[312]: No producer. consumer: 
dependGraph[313]: No producer. consumer: 
dependGraph[314]: No producer. consumer: 
dependGraph[315]: No producer. consumer: 
dependGraph[316]: No producer. consumer: 
dependGraph[317]: No producer. consumer: 
dependGraph[318]: No producer. consumer: 
dependGraph[319]: No producer. consumer: 
dependGraph[320]: No producer. consumer: 
dependGraph[321]: No producer. consumer: 
dependGraph[322]: No producer. consumer: 
dependGraph[323]: No producer. consumer: 
dependGraph[324]: No producer. consumer: 
dependGraph[325]: No producer. consumer: 
dependGraph[326]: No producer. consumer: 
dependGraph[327]: No producer. consumer: 
dependGraph[328]: No producer. consumer: 
dependGraph[329]: No producer. consumer: 
dependGraph[330]: No producer. consumer: 
dependGraph[331]: No producer. consumer: 
dependGraph[332]: No producer. consumer: 
dependGraph[333]: No producer. consumer: 
dependGraph[334]: No producer. consumer: 
dependGraph[335]: No producer. consumer: 
dependGraph[336]: No producer. consumer: 
dependGraph[337]: No producer. consumer: 
dependGraph[338]: No producer. consumer: 
dependGraph[339]: No producer. consumer: 
dependGraph[340]: No producer. consumer: 
dependGraph[341]: No producer. consumer: 
dependGraph[342]: No producer. consumer: 
dependGraph[343]: No producer. consumer: 
dependGraph[344]: No producer. consumer: 
dependGraph[345]: No producer. consumer: 
dependGraph[346]: No producer. consumer: 
dependGraph[347]: No producer. consumer: 
dependGraph[348]: No producer. consumer: 
dependGraph[349]: No producer. consumer: 
dependGraph[350]: No producer. consumer: 
dependGraph[351]: No producer. consumer: 
dependGraph[352]: No producer. consumer: 
dependGraph[353]: No producer. consumer: 
dependGraph[354]: No producer. consumer: 
dependGraph[355]: No producer. consumer: 
dependGraph[356]: No producer. consumer: 
dependGraph[357]: No producer. consumer: 
dependGraph[358]: No producer. consumer: 
dependGraph[359]: No producer. consumer: 
dependGraph[360]: No producer. consumer: 
dependGraph[361]: No producer. consumer: 
dependGraph[362]: No producer. consumer: 
dependGraph[363]: No producer. consumer: 
dependGraph[364]: No producer. consumer: 
dependGraph[365]: No producer. consumer: 
dependGraph[366]: No producer. consumer: 
dependGraph[367]: No producer. consumer: 
dependGraph[368]: No producer. consumer: 
dependGraph[369]: No producer. consumer: 
dependGraph[370]: No producer. consumer: 
dependGraph[371]: No producer. consumer: 
dependGraph[372]: No producer. consumer: 
dependGraph[373]: No producer. consumer: 
dependGraph[374]: No producer. consumer: 
dependGraph[375]: No producer. consumer: 
dependGraph[376]: No producer. consumer: 
dependGraph[377]: No producer. consumer: 
dependGraph[378]: No producer. consumer: 
dependGraph[379]: No producer. consumer: 
dependGraph[380]: No producer. consumer: 
dependGraph[381]: No producer. consumer: 
dependGraph[382]: No producer. consumer: 
dependGraph[383]: No producer. consumer: 
dependGraph[384]: No producer. consumer: 
dependGraph[385]: No producer. consumer: 
dependGraph[386]: No producer. consumer: 
dependGraph[387]: No producer. consumer: 
dependGraph[388]: No producer. consumer: 
dependGraph[389]: No producer. consumer: 
dependGraph[390]: No producer. consumer: 
dependGraph[391]: No producer. consumer: 
dependGraph[392]: No producer. consumer: 
dependGraph[393]: No producer. consumer: 
dependGraph[394]: No producer. consumer: 
dependGraph[395]: No producer. consumer: 
dependGraph[396]: No producer. consumer: 
dependGraph[397]: No producer. consumer: 
dependGraph[398]: No producer. consumer: 
dependGraph[399]: No producer. consumer: 
dependGraph[400]: No producer. consumer: 
dependGraph[401]: No producer. consumer: 
dependGraph[402]: No producer. consumer: 
dependGraph[403]: No producer. consumer: 
dependGraph[404]: No producer. consumer: 
dependGraph[405]: No producer. consumer: 
dependGraph[406]: No producer. consumer: 
dependGraph[407]: No producer. consumer: 
dependGraph[408]: No producer. consumer: 
dependGraph[409]: No producer. consumer: 
dependGraph[410]: No producer. consumer: 
dependGraph[411]: No producer. consumer: 
dependGraph[412]: No producer. consumer: 
dependGraph[413]: No producer. consumer: 
dependGraph[414]: No producer. consumer: 
dependGraph[415]: No producer. consumer: 
dependGraph[416]: No producer. consumer: 
dependGraph[417]: No producer. consumer: 
dependGraph[418]: No producer. consumer: 
dependGraph[419]: No producer. consumer: 
dependGraph[420]: No producer. consumer: 
dependGraph[421]: No producer. consumer: 
dependGraph[422]: No producer. consumer: 
dependGraph[423]: No producer. consumer: 
dependGraph[424]: No producer. consumer: 
dependGraph[425]: No producer. consumer: 
dependGraph[426]: No producer. consumer: 
dependGraph[427]: No producer. consumer: 
dependGraph[428]: No producer. consumer: 
dependGraph[429]: No producer. consumer: 
dependGraph[430]: No producer. consumer: 
dependGraph[431]: No producer. consumer: 
dependGraph[432]: No producer. consumer: 
dependGraph[433]: No producer. consumer: 
dependGraph[434]: No producer. consumer: 
dependGraph[435]: No producer. consumer: 
dependGraph[436]: No producer. consumer: 
dependGraph[437]: No producer. consumer: 
dependGraph[438]: No producer. consumer: 
dependGraph[439]: No producer. consumer: 
dependGraph[440]: No producer. consumer: 
dependGraph[441]: No producer. consumer: 
dependGraph[442]: No producer. consumer: 
dependGraph[443]: No producer. consumer: 
dependGraph[444]: No producer. consumer: 
dependGraph[445]: No producer. consumer: 
dependGraph[446]: No producer. consumer: 
dependGraph[447]: No producer. consumer: 
dependGraph[448]: No producer. consumer: 
dependGraph[449]: No producer. consumer: 
dependGraph[450]: No producer. consumer: 
dependGraph[451]: No producer. consumer: 
dependGraph[452]: No producer. consumer: 
dependGraph[453]: No producer. consumer: 
dependGraph[454]: No producer. consumer: 
dependGraph[455]: No producer. consumer: 
dependGraph[456]: No producer. consumer: 
dependGraph[457]: No producer. consumer: 
dependGraph[458]: No producer. consumer: 
dependGraph[459]: No producer. consumer: 
dependGraph[460]: No producer. consumer: 
dependGraph[461]: No producer. consumer: 
dependGraph[462]: No producer. consumer: 
dependGraph[463]: No producer. consumer: 
dependGraph[464]: No producer. consumer: 
dependGraph[465]: No producer. consumer: 
dependGraph[466]: No producer. consumer: 
dependGraph[467]: No producer. consumer: 
dependGraph[468]: No producer. consumer: 
dependGraph[469]: No producer. consumer: 
dependGraph[470]: No producer. consumer: 
dependGraph[471]: No producer. consumer: 
dependGraph[472]: No producer. consumer: 
dependGraph[473]: No producer. consumer: 
dependGraph[474]: No producer. consumer: 
dependGraph[475]: No producer. consumer: 
dependGraph[476]: No producer. consumer: 
dependGraph[477]: No producer. consumer: 
dependGraph[478]: No producer. consumer: 
dependGraph[479]: No producer. consumer: 
dependGraph[480]: No producer. consumer: 
dependGraph[481]: No producer. consumer: 
dependGraph[482]: No producer. consumer: 
dependGraph[483]: No producer. consumer: 
dependGraph[484]: No producer. consumer: 
dependGraph[485]: No producer. consumer: 
dependGraph[486]: No producer. consumer: 
dependGraph[487]: No producer. consumer: 
dependGraph[488]: No producer. consumer: 
dependGraph[489]: No producer. consumer: 
dependGraph[490]: No producer. consumer: 
dependGraph[491]: No producer. consumer: 
dependGraph[492]: No producer. consumer: 
dependGraph[493]: No producer. consumer: 
dependGraph[494]: No producer. consumer: 
dependGraph[495]: No producer. consumer: 
dependGraph[496]: No producer. consumer: 
dependGraph[497]: No producer. consumer: 
dependGraph[498]: No producer. consumer: 
dependGraph[499]: No producer. consumer: 
dependGraph[500]: No producer. consumer: 
dependGraph[501]: No producer. consumer: 
dependGraph[502]: No producer. consumer: 
dependGraph[503]: No producer. consumer: 
dependGraph[504]: No producer. consumer: 
dependGraph[505]: No producer. consumer: 
dependGraph[506]: No producer. consumer: 
dependGraph[507]: No producer. consumer: 
dependGraph[508]: No producer. consumer: 
dependGraph[509]: No producer. consumer: 
dependGraph[510]: No producer. consumer: 
dependGraph[511]: No producer. consumer: 
dependGraph[512]: No producer. consumer: 
dependGraph[513]: No producer. consumer: 
dependGraph[514]: No producer. consumer: 
dependGraph[515]: No producer. consumer: 
dependGraph[516]: No producer. consumer: 
dependGraph[517]: No producer. consumer: 
dependGraph[518]: No producer. consumer: 
dependGraph[519]: No producer. consumer: 
dependGraph[520]: No producer. consumer: 
dependGraph[521]: No producer. consumer: 
dependGraph[522]: No producer. consumer: 
dependGraph[523]: No producer. consumer: 
dependGraph[524]: No producer. consumer: 
dependGraph[525]: No producer. consumer: 
dependGraph[526]: No producer. consumer: 
dependGraph[527]: No producer. consumer: 
dependGraph[528]: No producer. consumer: 
dependGraph[529]: No producer. consumer: 
dependGraph[530]: No producer. consumer: 
dependGraph[531]: No producer. consumer: 
dependGraph[532]: No producer. consumer: 
dependGraph[533]: No producer. consumer: 
dependGraph[534]: No producer. consumer: 
dependGraph[535]: No producer. consumer: 
dependGraph[536]: No producer. consumer: 
dependGraph[537]: No producer. consumer: 
dependGraph[538]: No producer. consumer: 
dependGraph[539]: No producer. consumer: 
dependGraph[540]: No producer. consumer: 
dependGraph[541]: No producer. consumer: 
dependGraph[542]: No producer. consumer: 
dependGraph[543]: No producer. consumer: 
dependGraph[544]: No producer. consumer: 
dependGraph[545]: No producer. consumer: 
dependGraph[546]: No producer. consumer: 
dependGraph[547]: No producer. consumer: 
dependGraph[548]: No producer. consumer: 
dependGraph[549]: No producer. consumer: 
dependGraph[550]: No producer. consumer: 
dependGraph[551]: No producer. consumer: 
dependGraph[552]: No producer. consumer: 
dependGraph[553]: No producer. consumer: 
dependGraph[554]: No producer. consumer: 
dependGraph[555]: No producer. consumer: 
dependGraph[556]: No producer. consumer: 
dependGraph[557]: No producer. consumer: 
dependGraph[558]: No producer. consumer: 
dependGraph[559]: No producer. consumer: 
dependGraph[560]: No producer. consumer: 
dependGraph[561]: No producer. consumer: 
dependGraph[562]: No producer. consumer: 
dependGraph[563]: No producer. consumer: 
dependGraph[564]: No producer. consumer: 
dependGraph[565]: No producer. consumer: 
dependGraph[566]: No producer. consumer: 
dependGraph[567]: No producer. consumer: 
dependGraph[568]: No producer. consumer: 
dependGraph[569]: No producer. consumer: 
dependGraph[570]: No producer. consumer: 
dependGraph[571]: No producer. consumer: 
dependGraph[572]: No producer. consumer: 
dependGraph[573]: No producer. consumer: 
dependGraph[574]: No producer. consumer: 
dependGraph[575]: No producer. consumer: 
dependGraph[576]: No producer. consumer: 
dependGraph[577]: No producer. consumer: 
dependGraph[578]: No producer. consumer: 
dependGraph[579]: No producer. consumer: 
dependGraph[580]: No producer. consumer: 
dependGraph[581]: No producer. consumer: 
dependGraph[582]: No producer. consumer: 
dependGraph[583]: No producer. consumer: 
dependGraph[584]: No producer. consumer: 
dependGraph[585]: No producer. consumer: 
dependGraph[586]: No producer. consumer: 
dependGraph[587]: No producer. consumer: 
dependGraph[588]: No producer. consumer: 
dependGraph[589]: No producer. consumer: 
dependGraph[590]: No producer. consumer: 
dependGraph[591]: No producer. consumer: 
dependGraph[592]: No producer. consumer: 
dependGraph[593]: No producer. consumer: 
dependGraph[594]: No producer. consumer: 
dependGraph[595]: No producer. consumer: 
dependGraph[596]: No producer. consumer: 
dependGraph[597]: No producer. consumer: 
dependGraph[598]: No producer. consumer: 
dependGraph[599]: No producer. consumer: 
dependGraph[600]: No producer. consumer: 
dependGraph[601]: No producer. consumer: 
dependGraph[602]: No producer. consumer: 
dependGraph[603]: No producer. consumer: 
dependGraph[604]: No producer. consumer: 
dependGraph[605]: No producer. consumer: 
dependGraph[606]: No producer. consumer: 
dependGraph[607]: No producer. consumer: 
dependGraph[608]: No producer. consumer: 
dependGraph[609]: No producer. consumer: 
dependGraph[610]: No producer. consumer: 
dependGraph[611]: No producer. consumer: 
dependGraph[612]: No producer. consumer: 
dependGraph[613]: No producer. consumer: 
dependGraph[614]: No producer. consumer: 
dependGraph[615]: No producer. consumer: 
dependGraph[616]: No producer. consumer: 
dependGraph[617]: No producer. consumer: 
dependGraph[618]: No producer. consumer: 
dependGraph[619]: No producer. consumer: 
dependGraph[620]: No producer. consumer: 
dependGraph[621]: No producer. consumer: 
dependGraph[622]: No producer. consumer: 
dependGraph[623]: No producer. consumer: 
dependGraph[624]: No producer. consumer: 
dependGraph[625]: No producer. consumer: 
dependGraph[626]: No producer. consumer: 
dependGraph[627]: No producer. consumer: 
dependGraph[628]: No producer. consumer: 
dependGraph[629]: No producer. consumer: 
dependGraph[630]: No producer. consumer: 
dependGraph[631]: No producer. consumer: 
dependGraph[632]: No producer. consumer: 
dependGraph[633]: No producer. consumer: 
dependGraph[634]: No producer. consumer: 
dependGraph[635]: No producer. consumer: 
dependGraph[636]: No producer. consumer: 
dependGraph[637]: No producer. consumer: 
dependGraph[638]: No producer. consumer: 
dependGraph[639]: No producer. consumer: 
dependGraph[640]: No producer. consumer: 
dependGraph[641]: No producer. consumer: 
dependGraph[642]: No producer. consumer: 
dependGraph[643]: No producer. consumer: 
dependGraph[644]: No producer. consumer: 
dependGraph[645]: No producer. consumer: 
dependGraph[646]: No producer. consumer: 
dependGraph[647]: No producer. consumer: 
dependGraph[648]: No producer. consumer: 
dependGraph[649]: No producer. consumer: 
dependGraph[650]: No producer. consumer: 
dependGraph[651]: No producer. consumer: 
dependGraph[652]: No producer. consumer: 
dependGraph[653]: No producer. consumer: 
dependGraph[654]: No producer. consumer: 
dependGraph[655]: No producer. consumer: 
dependGraph[656]: No producer. consumer: 
dependGraph[657]: No producer. consumer: 
dependGraph[658]: No producer. consumer: 
dependGraph[659]: No producer. consumer: 
dependGraph[660]: No producer. consumer: 
dependGraph[661]: No producer. consumer: 
dependGraph[662]: No producer. consumer: 
dependGraph[663]: No producer. consumer: 
dependGraph[664]: No producer. consumer: 
dependGraph[665]: No producer. consumer: 
dependGraph[666]: No producer. consumer: 
dependGraph[667]: No producer. consumer: 
dependGraph[668]: No producer. consumer: 
dependGraph[669]: No producer. consumer: 
dependGraph[670]: No producer. consumer: 
dependGraph[671]: No producer. consumer: 
dependGraph[672]: No producer. consumer: 
dependGraph[673]: No producer. consumer: 
dependGraph[674]: No producer. consumer: 
dependGraph[675]: No producer. consumer: 
dependGraph[676]: No producer. consumer: 
dependGraph[677]: No producer. consumer: 
dependGraph[678]: No producer. consumer: 
dependGraph[679]: No producer. consumer: 
dependGraph[680]: No producer. consumer: 
dependGraph[681]: No producer. consumer: 
dependGraph[682]: No producer. consumer: 
dependGraph[683]: No producer. consumer: 
dependGraph[684]: No producer. consumer: 
dependGraph[685]: No producer. consumer: 
dependGraph[686]: No producer. consumer: 
dependGraph[687]: No producer. consumer: 
dependGraph[688]: No producer. consumer: 
dependGraph[689]: No producer. consumer: 
dependGraph[690]: No producer. consumer: 
dependGraph[691]: No producer. consumer: 
dependGraph[692]: No producer. consumer: 
dependGraph[693]: No producer. consumer: 
dependGraph[694]: No producer. consumer: 
dependGraph[695]: No producer. consumer: 
dependGraph[696]: No producer. consumer: 
dependGraph[697]: No producer. consumer: 
dependGraph[698]: No producer. consumer: 
dependGraph[699]: No producer. consumer: 
dependGraph[700]: No producer. consumer: 
dependGraph[701]: No producer. consumer: 
dependGraph[702]: No producer. consumer: 
dependGraph[703]: No producer. consumer: 
dependGraph[704]: No producer. consumer: 
dependGraph[705]: No producer. consumer: 
dependGraph[706]: No producer. consumer: 
dependGraph[707]: No producer. consumer: 
dependGraph[708]: No producer. consumer: 
dependGraph[709]: No producer. consumer: 
dependGraph[710]: No producer. consumer: 
dependGraph[711]: No producer. consumer: 
dependGraph[712]: No producer. consumer: 
dependGraph[713]: No producer. consumer: 
dependGraph[714]: No producer. consumer: 
dependGraph[715]: No producer. consumer: 
dependGraph[716]: No producer. consumer: 
dependGraph[717]: No producer. consumer: 
dependGraph[718]: No producer. consumer: 
dependGraph[719]: No producer. consumer: 
dependGraph[720]: No producer. consumer: 
dependGraph[721]: No producer. consumer: 
dependGraph[722]: No producer. consumer: 
dependGraph[723]: No producer. consumer: 
dependGraph[724]: No producer. consumer: 
dependGraph[725]: No producer. consumer: 
dependGraph[726]: No producer. consumer: 
dependGraph[727]: No producer. consumer: 
dependGraph[728]: No producer. consumer: 
dependGraph[729]: No producer. consumer: 
dependGraph[730]: No producer. consumer: 
dependGraph[731]: No producer. consumer: 
dependGraph[732]: No producer. consumer: 
dependGraph[733]: No producer. consumer: 
dependGraph[734]: No producer. consumer: 
dependGraph[735]: No producer. consumer: 
dependGraph[736]: No producer. consumer: 
dependGraph[737]: No producer. consumer: 
dependGraph[738]: No producer. consumer: 
dependGraph[739]: No producer. consumer: 
dependGraph[740]: No producer. consumer: 
dependGraph[741]: No producer. consumer: 
dependGraph[742]: No producer. consumer: 
dependGraph[743]: No producer. consumer: 
dependGraph[744]: No producer. consumer: 
dependGraph[745]: No producer. consumer: 
dependGraph[746]: No producer. consumer: 
dependGraph[747]: No producer. consumer: 
dependGraph[748]: No producer. consumer: 
dependGraph[749]: No producer. consumer: 
dependGraph[750]: No producer. consumer: 
dependGraph[751]: No producer. consumer: 
dependGraph[752]: No producer. consumer: 
dependGraph[753]: No producer. consumer: 
dependGraph[754]: No producer. consumer: 
dependGraph[755]: No producer. consumer: 
dependGraph[756]: No producer. consumer: 
dependGraph[757]: No producer. consumer: 
dependGraph[758]: No producer. consumer: 
dependGraph[759]: No producer. consumer: 
dependGraph[760]: No producer. consumer: 
dependGraph[761]: No producer. consumer: 
dependGraph[762]: No producer. consumer: 
dependGraph[763]: No producer. consumer: 
dependGraph[764]: No producer. consumer: 
dependGraph[765]: No producer. consumer: 
dependGraph[766]: No producer. consumer: 
dependGraph[767]: No producer. consumer: 
dependGraph[768]: No producer. consumer: 
dependGraph[769]: No producer. consumer: 
dependGraph[770]: No producer. consumer: 
dependGraph[771]: No producer. consumer: 
dependGraph[772]: No producer. consumer: 
dependGraph[773]: No producer. consumer: 
dependGraph[774]: No producer. consumer: 
dependGraph[775]: No producer. consumer: 
dependGraph[776]: No producer. consumer: 
dependGraph[777]: No producer. consumer: 
dependGraph[778]: No producer. consumer: 
dependGraph[779]: No producer. consumer: 
dependGraph[780]: No producer. consumer: 
dependGraph[781]: No producer. consumer: 
dependGraph[782]: No producer. consumer: 
dependGraph[783]: No producer. consumer: 
dependGraph[784]: No producer. consumer: 
dependGraph[785]: No producer. consumer: 
dependGraph[786]: No producer. consumer: 
dependGraph[787]: No producer. consumer: 
dependGraph[788]: No producer. consumer: 
dependGraph[789]: No producer. consumer: 
dependGraph[790]: No producer. consumer: 
dependGraph[791]: No producer. consumer: 
dependGraph[792]: No producer. consumer: 
dependGraph[793]: No producer. consumer: 
dependGraph[794]: No producer. consumer: 
dependGraph[795]: No producer. consumer: 
dependGraph[796]: No producer. consumer: 
dependGraph[797]: No producer. consumer: 
dependGraph[798]: No producer. consumer: 
dependGraph[799]: No producer. consumer: 
dependGraph[800]: No producer. consumer: 
dependGraph[801]: No producer. consumer: 
dependGraph[802]: No producer. consumer: 
dependGraph[803]: No producer. consumer: 
dependGraph[804]: No producer. consumer: 
dependGraph[805]: No producer. consumer: 
dependGraph[806]: No producer. consumer: 
dependGraph[807]: No producer. consumer: 
dependGraph[808]: No producer. consumer: 
dependGraph[809]: No producer. consumer: 
dependGraph[810]: No producer. consumer: 
dependGraph[811]: No producer. consumer: 
dependGraph[812]: No producer. consumer: 
dependGraph[813]: No producer. consumer: 
dependGraph[814]: No producer. consumer: 
dependGraph[815]: No producer. consumer: 
dependGraph[816]: No producer. consumer: 
dependGraph[817]: No producer. consumer: 
dependGraph[818]: No producer. consumer: 
dependGraph[819]: No producer. consumer: 
dependGraph[820]: No producer. consumer: 
dependGraph[821]: No producer. consumer: 
dependGraph[822]: No producer. consumer: 
dependGraph[823]: No producer. consumer: 
dependGraph[824]: No producer. consumer: 
dependGraph[825]: No producer. consumer: 
dependGraph[826]: No producer. consumer: 
dependGraph[827]: No producer. consumer: 
dependGraph[828]: No producer. consumer: 
dependGraph[829]: No producer. consumer: 
dependGraph[830]: No producer. consumer: 
dependGraph[831]: No producer. consumer: 
dependGraph[832]: No producer. consumer: 
dependGraph[833]: No producer. consumer: 
dependGraph[834]: No producer. consumer: 
dependGraph[835]: No producer. consumer: 
dependGraph[836]: No producer. consumer: 
dependGraph[837]: No producer. consumer: 
dependGraph[838]: No producer. consumer: 
dependGraph[839]: No producer. consumer: 
dependGraph[840]: No producer. consumer: 
dependGraph[841]: No producer. consumer: 
dependGraph[842]: No producer. consumer: 
dependGraph[843]: No producer. consumer: 
dependGraph[844]: No producer. consumer: 
dependGraph[845]: No producer. consumer: 
dependGraph[846]: No producer. consumer: 
dependGraph[847]: No producer. consumer: 
dependGraph[848]: No producer. consumer: 
dependGraph[849]: No producer. consumer: 
dependGraph[850]: No producer. consumer: 
dependGraph[851]: No producer. consumer: 
dependGraph[852]: No producer. consumer: 
dependGraph[853]: No producer. consumer: 
dependGraph[854]: No producer. consumer: 
dependGraph[855]: No producer. consumer: 
dependGraph[856]: No producer. consumer: 
dependGraph[857]: No producer. consumer: 
dependGraph[858]: No producer. consumer: 
dependGraph[859]: No producer. consumer: 
dependGraph[860]: No producer. consumer: 
dependGraph[861]: No producer. consumer: 
dependGraph[862]: No producer. consumer: 
dependGraph[863]: No producer. consumer: 
dependGraph[864]: No producer. consumer: 
dependGraph[865]: No producer. consumer: 
dependGraph[866]: No producer. consumer: 
dependGraph[867]: No producer. consumer: 
dependGraph[868]: No producer. consumer: 
dependGraph[869]: No producer. consumer: 
dependGraph[870]: No producer. consumer: 
dependGraph[871]: No producer. consumer: 
dependGraph[872]: No producer. consumer: 
dependGraph[873]: No producer. consumer: 
dependGraph[874]: No producer. consumer: 
dependGraph[875]: No producer. consumer: 
dependGraph[876]: No producer. consumer: 
dependGraph[877]: No producer. consumer: 
dependGraph[878]: No producer. consumer: 
dependGraph[879]: No producer. consumer: 
dependGraph[880]: No producer. consumer: 
dependGraph[881]: No producer. consumer: 
dependGraph[882]: No producer. consumer: 
dependGraph[883]: No producer. consumer: 
dependGraph[884]: No producer. consumer: 
dependGraph[885]: No producer. consumer: 
dependGraph[886]: No producer. consumer: 
dependGraph[887]: No producer. consumer: 
dependGraph[888]: No producer. consumer: 
dependGraph[889]: No producer. consumer: 
dependGraph[890]: No producer. consumer: 
dependGraph[891]: No producer. consumer: 
dependGraph[892]: No producer. consumer: 
dependGraph[893]: No producer. consumer: 
dependGraph[894]: No producer. consumer: 
dependGraph[895]: No producer. consumer: 
dependGraph[896]: No producer. consumer: 
dependGraph[897]: No producer. consumer: 
dependGraph[898]: No producer. consumer: 
dependGraph[899]: No producer. consumer: 
dependGraph[900]: No producer. consumer: 
dependGraph[901]: No producer. consumer: 
dependGraph[902]: No producer. consumer: 
dependGraph[903]: No producer. consumer: 
dependGraph[904]: No producer. consumer: 
dependGraph[905]: No producer. consumer: 
dependGraph[906]: No producer. consumer: 
dependGraph[907]: No producer. consumer: 
dependGraph[908]: No producer. consumer: 
dependGraph[909]: No producer. consumer: 
dependGraph[910]: No producer. consumer: 
dependGraph[911]: No producer. consumer: 
dependGraph[912]: No producer. consumer: 
dependGraph[913]: No producer. consumer: 
dependGraph[914]: No producer. consumer: 
dependGraph[915]: No producer. consumer: 
dependGraph[916]: No producer. consumer: 
dependGraph[917]: No producer. consumer: 
dependGraph[918]: No producer. consumer: 
dependGraph[919]: No producer. consumer: 
dependGraph[920]: No producer. consumer: 
dependGraph[921]: No producer. consumer: 
dependGraph[922]: No producer. consumer: 
dependGraph[923]: No producer. consumer: 
dependGraph[924]: No producer. consumer: 
dependGraph[925]: No producer. consumer: 
dependGraph[926]: No producer. consumer: 
dependGraph[927]: No producer. consumer: 
dependGraph[928]: No producer. consumer: 
dependGraph[929]: No producer. consumer: 
dependGraph[930]: No producer. consumer: 
dependGraph[931]: No producer. consumer: 
dependGraph[932]: No producer. consumer: 
dependGraph[933]: No producer. consumer: 
dependGraph[934]: No producer. consumer: 
dependGraph[935]: No producer. consumer: 
dependGraph[936]: No producer. consumer: 
dependGraph[937]: No producer. consumer: 
dependGraph[938]: No producer. consumer: 
dependGraph[939]: No producer. consumer: 
dependGraph[940]: No producer. consumer: 
dependGraph[941]: No producer. consumer: 
dependGraph[942]: No producer. consumer: 
dependGraph[943]: No producer. consumer: 
dependGraph[944]: No producer. consumer: 
dependGraph[945]: No producer. consumer: 
dependGraph[946]: No producer. consumer: 
dependGraph[947]: No producer. consumer: 
dependGraph[948]: No producer. consumer: 
dependGraph[949]: No producer. consumer: 
dependGraph[950]: No producer. consumer: 
dependGraph[951]: No producer. consumer: 
dependGraph[952]: No producer. consumer: 
dependGraph[953]: No producer. consumer: 
dependGraph[954]: No producer. consumer: 
dependGraph[955]: No producer. consumer: 
dependGraph[956]: No producer. consumer: 
dependGraph[957]: No producer. consumer: 
dependGraph[958]: No producer. consumer: 
dependGraph[959]: No producer. consumer: 
dependGraph[960]: No producer. consumer: 
dependGraph[961]: No producer. consumer: 
dependGraph[962]: No producer. consumer: 
dependGraph[963]: No producer. consumer: 
dependGraph[964]: No producer. consumer: 
dependGraph[965]: No producer. consumer: 
dependGraph[966]: No producer. consumer: 
dependGraph[967]: No producer. consumer: 
dependGraph[968]: No producer. consumer: 
dependGraph[969]: No producer. consumer: 
dependGraph[970]: No producer. consumer: 
dependGraph[971]: No producer. consumer: 
dependGraph[972]: No producer. consumer: 
dependGraph[973]: No producer. consumer: 
dependGraph[974]: No producer. consumer: 
dependGraph[975]: No producer. consumer: 
dependGraph[976]: No producer. consumer: 
dependGraph[977]: No producer. consumer: 
dependGraph[978]: No producer. consumer: 
dependGraph[979]: No producer. consumer: 
dependGraph[980]: No producer. consumer: 
dependGraph[981]: No producer. consumer: 
dependGraph[982]: No producer. consumer: 
dependGraph[983]: No producer. consumer: 
dependGraph[984]: No producer. consumer: 
dependGraph[985]: No producer. consumer: 
dependGraph[986]: No producer. consumer: 
dependGraph[987]: No producer. consumer: 
dependGraph[988]: No producer. consumer: 
dependGraph[989]: No producer. consumer: 
dependGraph[990]: No producer. consumer: 
dependGraph[991]: No producer. consumer: 
dependGraph[992]: No producer. consumer: 
dependGraph[993]: No producer. consumer: 
dependGraph[994]: No producer. consumer: 
dependGraph[995]: No producer. consumer: 
dependGraph[996]: No producer. consumer: 
dependGraph[997]: No producer. consumer: 
dependGraph[998]: No producer. consumer: 
dependGraph[999]: No producer. consumer: 
dependGraph[1000]: No producer. consumer: 
dependGraph[1001]: No producer. consumer: 
dependGraph[1002]: No producer. consumer: 
dependGraph[1003]: No producer. consumer: 
dependGraph[1004]: No producer. consumer: 
dependGraph[1005]: No producer. consumer: 
dependGraph[1006]: No producer. consumer: 
dependGraph[1007]: No producer. consumer: 
dependGraph[1008]: No producer. consumer: 
dependGraph[1009]: No producer. consumer: 
dependGraph[1010]: No producer. consumer: 
dependGraph[1011]: No producer. consumer: 
dependGraph[1012]: No producer. consumer: 
dependGraph[1013]: No producer. consumer: 
dependGraph[1014]: No producer. consumer: 
dependGraph[1015]: No producer. consumer: 
dependGraph[1016]: No producer. consumer: 
dependGraph[1017]: No producer. consumer: 
dependGraph[1018]: No producer. consumer: 
dependGraph[1019]: No producer. consumer: 
dependGraph[1020]: No producer. consumer: 
dependGraph[1021]: No producer. consumer: 
dependGraph[1022]: No producer. consumer: 
dependGraph[1023]: No producer. consumer: 
dependGraph[1024]: No producer. consumer: 
dependGraph[1025]: No producer. consumer: 
dependGraph[1026]: No producer. consumer: 
dependGraph[1027]: No producer. consumer: 
dependGraph[1028]: No producer. consumer: 
dependGraph[1029]: No producer. consumer: 
dependGraph[1030]: No producer. consumer: 
dependGraph[1031]: No producer. consumer: 
dependGraph[1032]: No producer. consumer: 
dependGraph[1033]: No producer. consumer: 
dependGraph[1034]: No producer. consumer: 
dependGraph[1035]: No producer. consumer: 
dependGraph[1036]: No producer. consumer: 
dependGraph[1037]: No producer. consumer: 
dependGraph[1038]: No producer. consumer: 
dependGraph[1039]: No producer. consumer: 
dependGraph[1040]: No producer. consumer: 
dependGraph[1041]: No producer. consumer: 
dependGraph[1042]: No producer. consumer: 
dependGraph[1043]: No producer. consumer: 
dependGraph[1044]: No producer. consumer: 
dependGraph[1045]: No producer. consumer: 
dependGraph[1046]: No producer. consumer: 
dependGraph[1047]: No producer. consumer: 
dependGraph[1048]: No producer. consumer: 
dependGraph[1049]: No producer. consumer: 
dependGraph[1050]: No producer. consumer: 
dependGraph[1051]: No producer. consumer: 
dependGraph[1052]: No producer. consumer: 
dependGraph[1053]: No producer. consumer: 
dependGraph[1054]: No producer. consumer: 
dependGraph[1055]: No producer. consumer: 
dependGraph[1056]: No producer. consumer: 
dependGraph[1057]: No producer. consumer: 
dependGraph[1058]: No producer. consumer: 
dependGraph[1059]: No producer. consumer: 
dependGraph[1060]: No producer. consumer: 
dependGraph[1061]: No producer. consumer: 
dependGraph[1062]: No producer. consumer: 
dependGraph[1063]: No producer. consumer: 
dependGraph[1064]: No producer. consumer: 
dependGraph[1065]: No producer. consumer: 
dependGraph[1066]: No producer. consumer: 
dependGraph[1067]: No producer. consumer: 
dependGraph[1068]: No producer. consumer: 
dependGraph[1069]: No producer. consumer: 
dependGraph[1070]: No producer. consumer: 
dependGraph[1071]: No producer. consumer: 
dependGraph[1072]: No producer. consumer: 
dependGraph[1073]: No producer. consumer: 
dependGraph[1074]: No producer. consumer: 
dependGraph[1075]: No producer. consumer: 
dependGraph[1076]: No producer. consumer: 
dependGraph[1077]: No producer. consumer: 
dependGraph[1078]: No producer. consumer: 
dependGraph[1079]: No producer. consumer: 
dependGraph[1080]: No producer. consumer: 
dependGraph[1081]: No producer. consumer: 
dependGraph[1082]: No producer. consumer: 
dependGraph[1083]: No producer. consumer: 
dependGraph[1084]: No producer. consumer: 
dependGraph[1085]: No producer. consumer: 
dependGraph[1086]: No producer. consumer: 
dependGraph[1087]: No producer. consumer: 
dependGraph[1088]: No producer. consumer: 
dependGraph[1089]: No producer. consumer: 
dependGraph[1090]: No producer. consumer: 
dependGraph[1091]: No producer. consumer: 
dependGraph[1092]: No producer. consumer: 
dependGraph[1093]: No producer. consumer: 
dependGraph[1094]: No producer. consumer: 
dependGraph[1095]: No producer. consumer: 
dependGraph[1096]: No producer. consumer: 
dependGraph[1097]: No producer. consumer: 
dependGraph[1098]: No producer. consumer: 
dependGraph[1099]: No producer. consumer: 
dependGraph[1100]: No producer. consumer: 
dependGraph[1101]: No producer. consumer: 
dependGraph[1102]: No producer. consumer: 
dependGraph[1103]: No producer. consumer: 
dependGraph[1104]: No producer. consumer: 
dependGraph[1105]: No producer. consumer: 
dependGraph[1106]: No producer. consumer: 
dependGraph[1107]: No producer. consumer: 
dependGraph[1108]: No producer. consumer: 
dependGraph[1109]: No producer. consumer: 
dependGraph[1110]: No producer. consumer: 
dependGraph[1111]: No producer. consumer: 
dependGraph[1112]: No producer. consumer: 
dependGraph[1113]: No producer. consumer: 
dependGraph[1114]: No producer. consumer: 
dependGraph[1115]: No producer. consumer: 
dependGraph[1116]: No producer. consumer: 
dependGraph[1117]: No producer. consumer: 
dependGraph[1118]: No producer. consumer: 
dependGraph[1119]: No producer. consumer: 
dependGraph[1120]: No producer. consumer: 
dependGraph[1121]: No producer. consumer: 
dependGraph[1122]: No producer. consumer: 
dependGraph[1123]: No producer. consumer: 
dependGraph[1124]: No producer. consumer: 
dependGraph[1125]: No producer. consumer: 
dependGraph[1126]: No producer. consumer: 
dependGraph[1127]: No producer. consumer: 
dependGraph[1128]: No producer. consumer: 
dependGraph[1129]: No producer. consumer: 
dependGraph[1130]: No producer. consumer: 
dependGraph[1131]: No producer. consumer: 
dependGraph[1132]: No producer. consumer: 
dependGraph[1133]: No producer. consumer: 
dependGraph[1134]: No producer. consumer: 
dependGraph[1135]: No producer. consumer: 
dependGraph[1136]: No producer. consumer: 
dependGraph[1137]: No producer. consumer: 
dependGraph[1138]: No producer. consumer: 
dependGraph[1139]: No producer. consumer: 
dependGraph[1140]: No producer. consumer: 
dependGraph[1141]: No producer. consumer: 
dependGraph[1142]: No producer. consumer: 
dependGraph[1143]: No producer. consumer: 
dependGraph[1144]: No producer. consumer: 
dependGraph[1145]: No producer. consumer: 
dependGraph[1146]: No producer. consumer: 
dependGraph[1147]: No producer. consumer: 
dependGraph[1148]: No producer. consumer: 
dependGraph[1149]: No producer. consumer: 
dependGraph[1150]: No producer. consumer: 
dependGraph[1151]: No producer. consumer: 
dependGraph[1152]: No producer. consumer: 
dependGraph[1153]: No producer. consumer: 
dependGraph[1154]: No producer. consumer: 
dependGraph[1155]: No producer. consumer: 
dependGraph[1156]: No producer. consumer: 
dependGraph[1157]: No producer. consumer: 
dependGraph[1158]: No producer. consumer: 
dependGraph[1159]: No producer. consumer: 
dependGraph[1160]: No producer. consumer: 
dependGraph[1161]: No producer. consumer: 
dependGraph[1162]: No producer. consumer: 
dependGraph[1163]: No producer. consumer: 
dependGraph[1164]: No producer. consumer: 
dependGraph[1165]: No producer. consumer: 
dependGraph[1166]: No producer. consumer: 
dependGraph[1167]: No producer. consumer: 
dependGraph[1168]: No producer. consumer: 
dependGraph[1169]: No producer. consumer: 
dependGraph[1170]: No producer. consumer: 
dependGraph[1171]: No producer. consumer: 
dependGraph[1172]: No producer. consumer: 
dependGraph[1173]: No producer. consumer: 
dependGraph[1174]: No producer. consumer: 
dependGraph[1175]: No producer. consumer: 
dependGraph[1176]: No producer. consumer: 
dependGraph[1177]: No producer. consumer: 
dependGraph[1178]: No producer. consumer: 
dependGraph[1179]: No producer. consumer: 
dependGraph[1180]: No producer. consumer: 
dependGraph[1181]: No producer. consumer: 
dependGraph[1182]: No producer. consumer: 
dependGraph[1183]: No producer. consumer: 
dependGraph[1184]: No producer. consumer: 
dependGraph[1185]: No producer. consumer: 
dependGraph[1186]: No producer. consumer: 
dependGraph[1187]: No producer. consumer: 
dependGraph[1188]: No producer. consumer: 
dependGraph[1189]: No producer. consumer: 
dependGraph[1190]: No producer. consumer: 
dependGraph[1191]: No producer. consumer: 
dependGraph[1192]: No producer. consumer: 
dependGraph[1193]: No producer. consumer: 
dependGraph[1194]: No producer. consumer: 
dependGraph[1195]: No producer. consumer: 
dependGraph[1196]: No producer. consumer: 
dependGraph[1197]: No producer. consumer: 
dependGraph[1198]: No producer. consumer: 
dependGraph[1199]: No producer. consumer: 
dependGraph[1200]: No producer. consumer: 
dependGraph[1201]: No producer. consumer: 
dependGraph[1202]: No producer. consumer: 
dependGraph[1203]: No producer. consumer: 
dependGraph[1204]: No producer. consumer: 
dependGraph[1205]: No producer. consumer: 
dependGraph[1206]: No producer. consumer: 
dependGraph[1207]: No producer. consumer: 
dependGraph[1208]: No producer. consumer: 
dependGraph[1209]: No producer. consumer: 
dependGraph[1210]: No producer. consumer: 
dependGraph[1211]: No producer. consumer: 
dependGraph[1212]: No producer. consumer: 
dependGraph[1213]: No producer. consumer: 
dependGraph[1214]: No producer. consumer: 
dependGraph[1215]: No producer. consumer: 
dependGraph[1216]: No producer. consumer: 
dependGraph[1217]: No producer. consumer: 
dependGraph[1218]: No producer. consumer: 
dependGraph[1219]: No producer. consumer: 
dependGraph[1220]: No producer. consumer: 
dependGraph[1221]: No producer. consumer: 
dependGraph[1222]: No producer. consumer: 
dependGraph[1223]: No producer. consumer: 
dependGraph[1224]: No producer. consumer: 
dependGraph[1225]: No producer. consumer: 
dependGraph[1226]: No producer. consumer: 
dependGraph[1227]: No producer. consumer: 
dependGraph[1228]: No producer. consumer: 
dependGraph[1229]: No producer. consumer: 
dependGraph[1230]: No producer. consumer: 
dependGraph[1231]: No producer. consumer: 
dependGraph[1232]: No producer. consumer: 
dependGraph[1233]: No producer. consumer: 
dependGraph[1234]: No producer. consumer: 
dependGraph[1235]: No producer. consumer: 
dependGraph[1236]: No producer. consumer: 
dependGraph[1237]: No producer. consumer: 
dependGraph[1238]: No producer. consumer: 
dependGraph[1239]: No producer. consumer: 
dependGraph[1240]: No producer. consumer: 
dependGraph[1241]: No producer. consumer: 
dependGraph[1242]: No producer. consumer: 
dependGraph[1243]: No producer. consumer: 
dependGraph[1244]: No producer. consumer: 
dependGraph[1245]: No producer. consumer: 
dependGraph[1246]: No producer. consumer: 
dependGraph[1247]: No producer. consumer: 
dependGraph[1248]: No producer. consumer: 
dependGraph[1249]: No producer. consumer: 
dependGraph[1250]: No producer. consumer: 
dependGraph[1251]: No producer. consumer: 
dependGraph[1252]: No producer. consumer: 
dependGraph[1253]: No producer. consumer: 
dependGraph[1254]: No producer. consumer: 
dependGraph[1255]: No producer. consumer: 
dependGraph[1256]: No producer. consumer: 
dependGraph[1257]: No producer. consumer: 
dependGraph[1258]: No producer. consumer: 
dependGraph[1259]: No producer. consumer: 
dependGraph[1260]: No producer. consumer: 
dependGraph[1261]: No producer. consumer: 
dependGraph[1262]: No producer. consumer: 
dependGraph[1263]: No producer. consumer: 
dependGraph[1264]: No producer. consumer: 
dependGraph[1265]: No producer. consumer: 
dependGraph[1266]: No producer. consumer: 
dependGraph[1267]: No producer. consumer: 
dependGraph[1268]: No producer. consumer: 
dependGraph[1269]: No producer. consumer: 
dependGraph[1270]: No producer. consumer: 
dependGraph[1271]: No producer. consumer: 
dependGraph[1272]: No producer. consumer: 
dependGraph[1273]: No producer. consumer: 
dependGraph[1274]: No producer. consumer: 
dependGraph[1275]: No producer. consumer: 
dependGraph[1276]: No producer. consumer: 
dependGraph[1277]: No producer. consumer: 
dependGraph[1278]: No producer. consumer: 
dependGraph[1279]: No producer. consumer: 
dependGraph[1280]: No producer. consumer: 
dependGraph[1281]: No producer. consumer: 
dependGraph[1282]: No producer. consumer: 
dependGraph[1283]: No producer. consumer: 
dependGraph[1284]: No producer. consumer: 
dependGraph[1285]: No producer. consumer: 
dependGraph[1286]: No producer. consumer: 
dependGraph[1287]: No producer. consumer: 
dependGraph[1288]: No producer. consumer: 
dependGraph[1289]: No producer. consumer: 
dependGraph[1290]: No producer. consumer: 
dependGraph[1291]: No producer. consumer: 
dependGraph[1292]: No producer. consumer: 
dependGraph[1293]: No producer. consumer: 
dependGraph[1294]: No producer. consumer: 
dependGraph[1295]: No producer. consumer: 
dependGraph[1296]: No producer. consumer: 
dependGraph[1297]: No producer. consumer: 
dependGraph[1298]: No producer. consumer: 
dependGraph[1299]: No producer. consumer: 
dependGraph[1300]: No producer. consumer: 
dependGraph[1301]: No producer. consumer: 
dependGraph[1302]: No producer. consumer: 
dependGraph[1303]: No producer. consumer: 
dependGraph[1304]: No producer. consumer: 
dependGraph[1305]: No producer. consumer: 
dependGraph[1306]: No producer. consumer: 
dependGraph[1307]: No producer. consumer: 
dependGraph[1308]: No producer. consumer: 
dependGraph[1309]: No producer. consumer: 
dependGraph[1310]: No producer. consumer: 
dependGraph[1311]: No producer. consumer: 
dependGraph[1312]: No producer. consumer: 
dependGraph[1313]: No producer. consumer: 
dependGraph[1314]: No producer. consumer: 
dependGraph[1315]: No producer. consumer: 
dependGraph[1316]: No producer. consumer: 
dependGraph[1317]: No producer. consumer: 
dependGraph[1318]: No producer. consumer: 
dependGraph[1319]: No producer. consumer: 
dependGraph[1320]: No producer. consumer: 
dependGraph[1321]: No producer. consumer: 
dependGraph[1322]: No producer. consumer: 
dependGraph[1323]: No producer. consumer: 
dependGraph[1324]: No producer. consumer: 
dependGraph[1325]: No producer. consumer: 
dependGraph[1326]: No producer. consumer: 
dependGraph[1327]: No producer. consumer: 
dependGraph[1328]: No producer. consumer: 
dependGraph[1329]: No producer. consumer: 
dependGraph[1330]: No producer. consumer: 
dependGraph[1331]: No producer. consumer: 
dependGraph[1332]: No producer. consumer: 
dependGraph[1333]: No producer. consumer: 
dependGraph[1334]: No producer. consumer: 
dependGraph[1335]: No producer. consumer: 
dependGraph[1336]: No producer. consumer: 
dependGraph[1337]: No producer. consumer: 
dependGraph[1338]: No producer. consumer: 
dependGraph[1339]: No producer. consumer: 
dependGraph[1340]: No producer. consumer: 
dependGraph[1341]: No producer. consumer: 
dependGraph[1342]: No producer. consumer: 
dependGraph[1343]: No producer. consumer: 
dependGraph[1344]: No producer. consumer: 
dependGraph[1345]: No producer. consumer: 
dependGraph[1346]: No producer. consumer: 
dependGraph[1347]: No producer. consumer: 
dependGraph[1348]: No producer. consumer: 
dependGraph[1349]: No producer. consumer: 
dependGraph[1350]: No producer. consumer: 
dependGraph[1351]: No producer. consumer: 
dependGraph[1352]: No producer. consumer: 
dependGraph[1353]: No producer. consumer: 
dependGraph[1354]: No producer. consumer: 
dependGraph[1355]: No producer. consumer: 
dependGraph[1356]: No producer. consumer: 
dependGraph[1357]: No producer. consumer: 
dependGraph[1358]: No producer. consumer: 
dependGraph[1359]: No producer. consumer: 
dependGraph[1360]: No producer. consumer: 
dependGraph[1361]: No producer. consumer: 
dependGraph[1362]: No producer. consumer: 
dependGraph[1363]: No producer. consumer: 
dependGraph[1364]: No producer. consumer: 
dependGraph[1365]: No producer. consumer: 
dependGraph[1366]: No producer. consumer: 
dependGraph[1367]: No producer. consumer: 
dependGraph[1368]: No producer. consumer: 
dependGraph[1369]: No producer. consumer: 
dependGraph[1370]: No producer. consumer: 
dependGraph[1371]: No producer. consumer: 
dependGraph[1372]: No producer. consumer: 
dependGraph[1373]: No producer. consumer: 
dependGraph[1374]: No producer. consumer: 
dependGraph[1375]: No producer. consumer: 
dependGraph[1376]: No producer. consumer: 
dependGraph[1377]: No producer. consumer: 
dependGraph[1378]: No producer. consumer: 
dependGraph[1379]: No producer. consumer: 
dependGraph[1380]: No producer. consumer: 
dependGraph[1381]: No producer. consumer: 
dependGraph[1382]: No producer. consumer: 
dependGraph[1383]: No producer. consumer: 
dependGraph[1384]: No producer. consumer: 
dependGraph[1385]: No producer. consumer: 
dependGraph[1386]: No producer. consumer: 
dependGraph[1387]: No producer. consumer: 
dependGraph[1388]: No producer. consumer: 
dependGraph[1389]: No producer. consumer: 
dependGraph[1390]: No producer. consumer: 
dependGraph[1391]: No producer. consumer: 
dependGraph[1392]: No producer. consumer: 
dependGraph[1393]: No producer. consumer: 
dependGraph[1394]: No producer. consumer: 
dependGraph[1395]: No producer. consumer: 
dependGraph[1396]: No producer. consumer: 
dependGraph[1397]: No producer. consumer: 
dependGraph[1398]: No producer. consumer: 
dependGraph[1399]: No producer. consumer: 
dependGraph[1400]: No producer. consumer: 
dependGraph[1401]: No producer. consumer: 
dependGraph[1402]: No producer. consumer: 
dependGraph[1403]: No producer. consumer: 
dependGraph[1404]: No producer. consumer: 
dependGraph[1405]: No producer. consumer: 
dependGraph[1406]: No producer. consumer: 
dependGraph[1407]: No producer. consumer: 
dependGraph[1408]: No producer. consumer: 
dependGraph[1409]: No producer. consumer: 
dependGraph[1410]: No producer. consumer: 
dependGraph[1411]: No producer. consumer: 
dependGraph[1412]: No producer. consumer: 
dependGraph[1413]: No producer. consumer: 
dependGraph[1414]: No producer. consumer: 
dependGraph[1415]: No producer. consumer: 
dependGraph[1416]: No producer. consumer: 
dependGraph[1417]: No producer. consumer: 
dependGraph[1418]: No producer. consumer: 
dependGraph[1419]: No producer. consumer: 
dependGraph[1420]: No producer. consumer: 
dependGraph[1421]: No producer. consumer: 
dependGraph[1422]: No producer. consumer: 
dependGraph[1423]: No producer. consumer: 
dependGraph[1424]: No producer. consumer: 
dependGraph[1425]: No producer. consumer: 
dependGraph[1426]: No producer. consumer: 
dependGraph[1427]: No producer. consumer: 
dependGraph[1428]: No producer. consumer: 
dependGraph[1429]: No producer. consumer: 
dependGraph[1430]: No producer. consumer: 
dependGraph[1431]: No producer. consumer: 
dependGraph[1432]: No producer. consumer: 
dependGraph[1433]: No producer. consumer: 
dependGraph[1434]: No producer. consumer: 
dependGraph[1435]: No producer. consumer: 
dependGraph[1436]: No producer. consumer: 
dependGraph[1437]: No producer. consumer: 
dependGraph[1438]: No producer. consumer: 
dependGraph[1439]: No producer. consumer: 
dependGraph[1440]: No producer. consumer: 
dependGraph[1441]: No producer. consumer: 
dependGraph[1442]: No producer. consumer: 
dependGraph[1443]: No producer. consumer: 
dependGraph[1444]: No producer. consumer: 
dependGraph[1445]: No producer. consumer: 
dependGraph[1446]: No producer. consumer: 
dependGraph[1447]: No producer. consumer: 
dependGraph[1448]: No producer. consumer: 
dependGraph[1449]: No producer. consumer: 
dependGraph[1450]: No producer. consumer: 
dependGraph[1451]: No producer. consumer: 
dependGraph[1452]: No producer. consumer: 
dependGraph[1453]: No producer. consumer: 
dependGraph[1454]: No producer. consumer: 
dependGraph[1455]: No producer. consumer: 
dependGraph[1456]: No producer. consumer: 
dependGraph[1457]: No producer. consumer: 
dependGraph[1458]: No producer. consumer: 
dependGraph[1459]: No producer. consumer: 
dependGraph[1460]: No producer. consumer: 
dependGraph[1461]: No producer. consumer: 
dependGraph[1462]: No producer. consumer: 
dependGraph[1463]: No producer. consumer: 
dependGraph[1464]: No producer. consumer: 
dependGraph[1465]: No producer. consumer: 
dependGraph[1466]: No producer. consumer: 
dependGraph[1467]: No producer. consumer: 
dependGraph[1468]: No producer. consumer: 
dependGraph[1469]: No producer. consumer: 
dependGraph[1470]: No producer. consumer: 
dependGraph[1471]: No producer. consumer: 
dependGraph[1472]: No producer. consumer: 
dependGraph[1473]: No producer. consumer: 
dependGraph[1474]: No producer. consumer: 
dependGraph[1475]: No producer. consumer: 
dependGraph[1476]: No producer. consumer: 
dependGraph[1477]: No producer. consumer: 
dependGraph[1478]: No producer. consumer: 
dependGraph[1479]: No producer. consumer: 
dependGraph[1480]: No producer. consumer: 
dependGraph[1481]: No producer. consumer: 
dependGraph[1482]: No producer. consumer: 
dependGraph[1483]: No producer. consumer: 
dependGraph[1484]: No producer. consumer: 
dependGraph[1485]: No producer. consumer: 
dependGraph[1486]: No producer. consumer: 
dependGraph[1487]: No producer. consumer: 
dependGraph[1488]: No producer. consumer: 
dependGraph[1489]: No producer. consumer: 
dependGraph[1490]: No producer. consumer: 
dependGraph[1491]: No producer. consumer: 
dependGraph[1492]: No producer. consumer: 
dependGraph[1493]: No producer. consumer: 
dependGraph[1494]: No producer. consumer: 
dependGraph[1495]: No producer. consumer: 
dependGraph[1496]: No producer. consumer: 
dependGraph[1497]: No producer. consumer: 
dependGraph[1498]: No producer. consumer: 
dependGraph[1499]: No producer. consumer: 
dependGraph[1500]: No producer. consumer: 
dependGraph[1501]: No producer. consumer: 
dependGraph[1502]: No producer. consumer: 
dependGraph[1503]: No producer. consumer: 
dependGraph[1504]: No producer. consumer: 
dependGraph[1505]: No producer. consumer: 
dependGraph[1506]: No producer. consumer: 
dependGraph[1507]: No producer. consumer: 
dependGraph[1508]: No producer. consumer: 
dependGraph[1509]: No producer. consumer: 
dependGraph[1510]: No producer. consumer: 
dependGraph[1511]: No producer. consumer: 
dependGraph[1512]: No producer. consumer: 
dependGraph[1513]: No producer. consumer: 
dependGraph[1514]: No producer. consumer: 
dependGraph[1515]: No producer. consumer: 
dependGraph[1516]: No producer. consumer: 
dependGraph[1517]: No producer. consumer: 
dependGraph[1518]: No producer. consumer: 
dependGraph[1519]: No producer. consumer: 
dependGraph[1520]: No producer. consumer: 
dependGraph[1521]: No producer. consumer: 
dependGraph[1522]: No producer. consumer: 
dependGraph[1523]: No producer. consumer: 
dependGraph[1524]: No producer. consumer: 
dependGraph[1525]: No producer. consumer: 
dependGraph[1526]: No producer. consumer: 
dependGraph[1527]: No producer. consumer: 
dependGraph[1528]: No producer. consumer: 
dependGraph[1529]: No producer. consumer: 
dependGraph[1530]: No producer. consumer: 
dependGraph[1531]: No producer. consumer: 
dependGraph[1532]: No producer. consumer: 
dependGraph[1533]: No producer. consumer: 
dependGraph[1534]: No producer. consumer: 
dependGraph[1535]: No producer. consumer: 
dependGraph[1536]: No producer. consumer: 
dependGraph[1537]: No producer. consumer: 
dependGraph[1538]: No producer. consumer: 
dependGraph[1539]: No producer. consumer: 
dependGraph[1540]: No producer. consumer: 
dependGraph[1541]: No producer. consumer: 
dependGraph[1542]: No producer. consumer: 
dependGraph[1543]: No producer. consumer: 
dependGraph[1544]: No producer. consumer: 
dependGraph[1545]: No producer. consumer: 
dependGraph[1546]: No producer. consumer: 
dependGraph[1547]: No producer. consumer: 
dependGraph[1548]: No producer. consumer: 
dependGraph[1549]: No producer. consumer: 
dependGraph[1550]: No producer. consumer: 
dependGraph[1551]: No producer. consumer: 
dependGraph[1552]: No producer. consumer: 
dependGraph[1553]: No producer. consumer: 
dependGraph[1554]: No producer. consumer: 
dependGraph[1555]: No producer. consumer: 
dependGraph[1556]: No producer. consumer: 
dependGraph[1557]: No producer. consumer: 
dependGraph[1558]: No producer. consumer: 
dependGraph[1559]: No producer. consumer: 
dependGraph[1560]: No producer. consumer: 
dependGraph[1561]: No producer. consumer: 
dependGraph[1562]: No producer. consumer: 
dependGraph[1563]: No producer. consumer: 
dependGraph[1564]: No producer. consumer: 
dependGraph[1565]: No producer. consumer: 
dependGraph[1566]: No producer. consumer: 
dependGraph[1567]: No producer. consumer: 
dependGraph[1568]: No producer. consumer: 
dependGraph[1569]: No producer. consumer: 
dependGraph[1570]: No producer. consumer: 
dependGraph[1571]: No producer. consumer: 
dependGraph[1572]: No producer. consumer: 
dependGraph[1573]: No producer. consumer: 
dependGraph[1574]: No producer. consumer: 
dependGraph[1575]: No producer. consumer: 
dependGraph[1576]: No producer. consumer: 
dependGraph[1577]: No producer. consumer: 
dependGraph[1578]: No producer. consumer: 
dependGraph[1579]: No producer. consumer: 
dependGraph[1580]: No producer. consumer: 
dependGraph[1581]: No producer. consumer: 
dependGraph[1582]: No producer. consumer: 
dependGraph[1583]: No producer. consumer: 
dependGraph[1584]: No producer. consumer: 
dependGraph[1585]: No producer. consumer: 
dependGraph[1586]: No producer. consumer: 
dependGraph[1587]: No producer. consumer: 
dependGraph[1588]: No producer. consumer: 
dependGraph[1589]: No producer. consumer: 
dependGraph[1590]: No producer. consumer: 
dependGraph[1591]: No producer. consumer: 
dependGraph[1592]: No producer. consumer: 
dependGraph[1593]: No producer. consumer: 
dependGraph[1594]: No producer. consumer: 
dependGraph[1595]: No producer. consumer: 
dependGraph[1596]: No producer. consumer: 
dependGraph[1597]: No producer. consumer: 
dependGraph[1598]: No producer. consumer: 
dependGraph[1599]: No producer. consumer: 
dependGraph[1600]: No producer. consumer: 
dependGraph[1601]: No producer. consumer: 
dependGraph[1602]: No producer. consumer: 
dependGraph[1603]: No producer. consumer: 
dependGraph[1604]: No producer. consumer: 
dependGraph[1605]: No producer. consumer: 
dependGraph[1606]: No producer. consumer: 
dependGraph[1607]: No producer. consumer: 
dependGraph[1608]: No producer. consumer: 
dependGraph[1609]: No producer. consumer: 
dependGraph[1610]: No producer. consumer: 
dependGraph[1611]: No producer. consumer: 
dependGraph[1612]: No producer. consumer: 
dependGraph[1613]: No producer. consumer: 
dependGraph[1614]: No producer. consumer: 
dependGraph[1615]: No producer. consumer: 
dependGraph[1616]: No producer. consumer: 
dependGraph[1617]: No producer. consumer: 
dependGraph[1618]: No producer. consumer: 
dependGraph[1619]: No producer. consumer: 
dependGraph[1620]: No producer. consumer: 
dependGraph[1621]: No producer. consumer: 
dependGraph[1622]: No producer. consumer: 
dependGraph[1623]: No producer. consumer: 
dependGraph[1624]: No producer. consumer: 
dependGraph[1625]: No producer. consumer: 
dependGraph[1626]: No producer. consumer: 
dependGraph[1627]: No producer. consumer: 
dependGraph[1628]: No producer. consumer: 
dependGraph[1629]: No producer. consumer: 
dependGraph[1630]: No producer. consumer: 
dependGraph[1631]: No producer. consumer: 
dependGraph[1632]: No producer. consumer: 
dependGraph[1633]: No producer. consumer: 
dependGraph[1634]: No producer. consumer: 
dependGraph[1635]: No producer. consumer: 
dependGraph[1636]: No producer. consumer: 
dependGraph[1637]: No producer. consumer: 
dependGraph[1638]: No producer. consumer: 
dependGraph[1639]: No producer. consumer: 
dependGraph[1640]: No producer. consumer: 
dependGraph[1641]: No producer. consumer: 
dependGraph[1642]: No producer. consumer: 
dependGraph[1643]: No producer. consumer: 
dependGraph[1644]: No producer. consumer: 
dependGraph[1645]: No producer. consumer: 
dependGraph[1646]: No producer. consumer: 
dependGraph[1647]: No producer. consumer: 
dependGraph[1648]: No producer. consumer: 
dependGraph[1649]: No producer. consumer: 
dependGraph[1650]: No producer. consumer: 
dependGraph[1651]: No producer. consumer: 
dependGraph[1652]: No producer. consumer: 
dependGraph[1653]: No producer. consumer: 
dependGraph[1654]: No producer. consumer: 
dependGraph[1655]: No producer. consumer: 
dependGraph[1656]: No producer. consumer: 
dependGraph[1657]: No producer. consumer: 
dependGraph[1658]: No producer. consumer: 
dependGraph[1659]: No producer. consumer: 
dependGraph[1660]: No producer. consumer: 
dependGraph[1661]: No producer. consumer: 
dependGraph[1662]: No producer. consumer: 
dependGraph[1663]: No producer. consumer: 
dependGraph[1664]: No producer. consumer: 
dependGraph[1665]: No producer. consumer: 
dependGraph[1666]: No producer. consumer: 
dependGraph[1667]: No producer. consumer: 
dependGraph[1668]: No producer. consumer: 
dependGraph[1669]: No producer. consumer: 
dependGraph[1670]: No producer. consumer: 
dependGraph[1671]: No producer. consumer: 
dependGraph[1672]: No producer. consumer: 
dependGraph[1673]: No producer. consumer: 
dependGraph[1674]: No producer. consumer: 
dependGraph[1675]: No producer. consumer: 
dependGraph[1676]: No producer. consumer: 
dependGraph[1677]: No producer. consumer: 
dependGraph[1678]: No producer. consumer: 
dependGraph[1679]: No producer. consumer: 
dependGraph[1680]: No producer. consumer: 
dependGraph[1681]: No producer. consumer: 
dependGraph[1682]: No producer. consumer: 
dependGraph[1683]: No producer. consumer: 
dependGraph[1684]: No producer. consumer: 
dependGraph[1685]: No producer. consumer: 
dependGraph[1686]: No producer. consumer: 
dependGraph[1687]: No producer. consumer: 
dependGraph[1688]: No producer. consumer: 
dependGraph[1689]: No producer. consumer: 
dependGraph[1690]: No producer. consumer: 
dependGraph[1691]: No producer. consumer: 
dependGraph[1692]: No producer. consumer: 
dependGraph[1693]: No producer. consumer: 
dependGraph[1694]: No producer. consumer: 
dependGraph[1695]: No producer. consumer: 
dependGraph[1696]: No producer. consumer: 
dependGraph[1697]: No producer. consumer: 
dependGraph[1698]: No producer. consumer: 
dependGraph[1699]: No producer. consumer: 
dependGraph[1700]: No producer. consumer: 
dependGraph[1701]: No producer. consumer: 
dependGraph[1702]: No producer. consumer: 
dependGraph[1703]: No producer. consumer: 
dependGraph[1704]: No producer. consumer: 
dependGraph[1705]: No producer. consumer: 
dependGraph[1706]: No producer. consumer: 
dependGraph[1707]: No producer. consumer: 
dependGraph[1708]: No producer. consumer: 
dependGraph[1709]: No producer. consumer: 
dependGraph[1710]: No producer. consumer: 
dependGraph[1711]: No producer. consumer: 
dependGraph[1712]: No producer. consumer: 
dependGraph[1713]: No producer. consumer: 
dependGraph[1714]: No producer. consumer: 
dependGraph[1715]: No producer. consumer: 
dependGraph[1716]: No producer. consumer: 
dependGraph[1717]: No producer. consumer: 
dependGraph[1718]: No producer. consumer: 
dependGraph[1719]: No producer. consumer: 
dependGraph[1720]: No producer. consumer: 
dependGraph[1721]: No producer. consumer: 
dependGraph[1722]: No producer. consumer: 
dependGraph[1723]: No producer. consumer: 
dependGraph[1724]: No producer. consumer: 
dependGraph[1725]: No producer. consumer: 
dependGraph[1726]: No producer. consumer: 
[...]
dependGraph[2128]: No producer. consumer: 
dependGraph[2129]: No producer. consumer: 
dependGraph[2130]: No producer. consumer: 
dependGraph[2131]: No producer. consumer: 
dependGraph[2132]: No producer. consumer: 
dependGraph[2133]: No producer. consumer: 
dependGraph[2134]: No producer. consumer: 
dependGraph[2135]: No producer. consumer: 
dependGraph[2136]: No producer. consumer: 
dependGraph[2137]: No producer. consumer: 
dependGraph[2138]: No producer. consumer: 
dependGraph[2139]: No producer. consumer: 
dependGraph[2140]: No producer. consumer: 
dependGraph[2141]: No producer. consumer: 
dependGraph[2142]: No producer. consumer: 
dependGraph[2143]: No producer. consumer: 
dependGraph[2144]: No producer. consumer: 
dependGraph[2145]: No producer. consumer: 
dependGraph[2146]: No producer. consumer: 
dependGraph[2147]: No producer. consumer: 
dependGraph[2148]: No producer. consumer: 
dependGraph[2149]: No producer. consumer: 
dependGraph[2150]: No producer. consumer: 
dependGraph[2151]: No producer. consumer: 
dependGraph[2152]: No producer. consumer: 
dependGraph[2153]: No producer. consumer: 
dependGraph[2154]: No producer. consumer: 
dependGraph[2155]: No producer. consumer: 
dependGraph[2156]: No producer. consumer: 
dependGraph[2157]: No producer. consumer: 
dependGraph[2158]: No producer. consumer: 
dependGraph[2159]: No producer. consumer: 
dependGraph[2160]: No producer. consumer: 
dependGraph[2161]: No producer. consumer: 
dependGraph[2162]: No producer. consumer: 
dependGraph[2163]: No producer. consumer: 
dependGraph[2164]: No producer. consumer: 
dependGraph[2165]: No producer. consumer: 
dependGraph[2166]: No producer. consumer: 
dependGraph[2167]: No producer. consumer: 
dependGraph[2168]: No producer. consumer: 
dependGraph[2169]: No producer. consumer: 
dependGraph[2170]: No producer. consumer: 
dependGraph[2171]: No producer. consumer: 
dependGraph[2172]: No producer. consumer: 
dependGraph[2173]: No producer. consumer: 
dependGraph[2174]: No producer. consumer: 
dependGraph[2175]: No producer. consumer: 
dependGraph[2176]: No producer. consumer: 
dependGraph[2177]: No producer. consumer: 
dependGraph[2178]: No producer. consumer: 
dependGraph[2179]: No producer. consumer: 
dependGraph[2180]: No producer. consumer: 
dependGraph[2181]: No producer. consumer: 
dependGraph[2182]: No producer. consumer: 
dependGraph[2183]: No producer. consumer: 
dependGraph[2184]: No producer. consumer: 
dependGraph[2185]: No producer. consumer: 
dependGraph[2186]: No producer. consumer: 
dependGraph[2187]: No producer. consumer: 
dependGraph[2188]: No producer. consumer: 
dependGraph[2189]: No producer. consumer: 
dependGraph[2190]: No producer. consumer: 
dependGraph[2191]: No producer. consumer: 
dependGraph[2192]: No producer. consumer: 
dependGraph[2193]: No producer. consumer: 
dependGraph[2194]: No producer. consumer: 
dependGraph[2195]: No producer. consumer: 
dependGraph[2196]: No producer. consumer: 
dependGraph[2197]: No producer. consumer: 
dependGraph[2198]: No producer. consumer: 
dependGraph[2199]: No producer. consumer: 
dependGraph[2200]: No producer. consumer: 
dependGraph[2201]: No producer. consumer: 
dependGraph[2202]: No producer. consumer: 
dependGraph[2203]: No producer. consumer: 
dependGraph[2204]: No producer. consumer: 
dependGraph[2205]: No producer. consumer: 
dependGraph[2206]: No producer. consumer: 
dependGraph[2207]: No producer. consumer: 
dependGraph[2208]: No producer. consumer: 
dependGraph[2209]: No producer. consumer: 
dependGraph[2210]: No producer. consumer: 
dependGraph[2211]: No producer. consumer: 
dependGraph[2212]: No producer. consumer: 
dependGraph[2213]: No producer. consumer: 
dependGraph[2214]: No producer. consumer: 
dependGraph[2215]: No producer. consumer: 
dependGraph[2216]: No producer. consumer: 
dependGraph[2217]: No producer. consumer: 
dependGraph[2218]: No producer. consumer: 
dependGraph[2219]: No producer. consumer: 
dependGraph[2220]: No producer. consumer: 
dependGraph[2221]: No producer. consumer: 
dependGraph[2222]: No producer. consumer: 
dependGraph[2223]: No producer. consumer: 
dependGraph[2224]: No producer. consumer: 
dependGraph[2225]: No producer. consumer: 
dependGraph[2226]: No producer. consumer: 
dependGraph[2227]: No producer. consumer: 
dependGraph[2228]: No producer. consumer: 
dependGraph[2229]: No producer. consumer: 
dependGraph[2230]: No producer. consumer: 
dependGraph[2231]: No producer. consumer: 
dependGraph[2232]: No producer. consumer: 
dependGraph[2233]: No producer. consumer: 
dependGraph[2234]: No producer. consumer: 
dependGraph[2235]: No producer. consumer: 
dependGraph[2236]: No producer. consumer: 
dependGraph[2237]: No producer. consumer: 
dependGraph[2238]: No producer. consumer: 
dependGraph[2239]: No producer. consumer: 
dependGraph[2240]: No producer. consumer: 
dependGraph[2241]: No producer. consumer: 
dependGraph[2242]: No producer. consumer: 
dependGraph[2243]: No producer. consumer: 
dependGraph[2244]: No producer. consumer: 
dependGraph[2245]: No producer. consumer: 
dependGraph[2246]: No producer. consumer: 
dependGraph[2247]: No producer. consumer: 
dependGraph[2248]: No producer. consumer: 
dependGraph[2249]: No producer. consumer: 
dependGraph[2250]: No producer. consumer: 
dependGraph[2251]: No producer. consumer: 
dependGraph[2252]: No producer. consumer: 
dependGraph[2253]: No producer. consumer: 
dependGraph[2254]: No producer. consumer: 
dependGraph[2255]: No producer. consumer: 
dependGraph[2256]: No producer. consumer: 
dependGraph[2257]: No producer. consumer: 
dependGraph[2258]: No producer. consumer: 
dependGraph[2259]: No producer. consumer: 
dependGraph[2260]: No producer. consumer: 
dependGraph[2261]: No producer. consumer: 
dependGraph[2262]: No producer. consumer: 
dependGraph[2263]: No producer. consumer: 
dependGraph[2264]: No producer. consumer: 
dependGraph[2265]: No producer. consumer: 
dependGraph[2266]: No producer. consumer: 
dependGraph[2267]: No producer. consumer: 
dependGraph[2268]: No producer. consumer: 
dependGraph[2269]: No producer. consumer: 
dependGraph[2270]: No producer. consumer: 
dependGraph[2271]: No producer. consumer: 
dependGraph[2272]: No producer. consumer: 
dependGraph[2273]: No producer. consumer: 
dependGraph[2274]: No producer. consumer: 
dependGraph[2275]: No producer. consumer: 
dependGraph[2276]: No producer. consumer: 
dependGraph[2277]: No producer. consumer: 
dependGraph[2278]: No producer. consumer: 
dependGraph[2279]: No producer. consumer: 
dependGraph[2280]: No producer. consumer: 
dependGraph[2281]: No producer. consumer: 
dependGraph[2282]: No producer. consumer: 
dependGraph[2283]: No producer. consumer: 
dependGraph[2284]: No producer. consumer: 
dependGraph[2285]: No producer. consumer: 
dependGraph[2286]: No producer. consumer: 
dependGraph[2287]: No producer. consumer: 
dependGraph[2288]: No producer. consumer: 
dependGraph[2289]: No producer. consumer: 
dependGraph[2290]: No producer. consumer: 
dependGraph[2291]: No producer. consumer: 
dependGraph[2292]: No producer. consumer: 
dependGraph[2293]: No producer. consumer: 
dependGraph[2294]: No producer. consumer: 
dependGraph[2295]: No producer. consumer: 
dependGraph[2296]: No producer. consumer: 
dependGraph[2297]: No producer. consumer: 
dependGraph[2298]: No producer. consumer: 
dependGraph[2299]: No producer. consumer: 
dependGraph[2300]: No producer. consumer: 
dependGraph[2301]: No producer. consumer: 
dependGraph[2302]: No producer. consumer: 
dependGraph[2303]: No producer. consumer: 
dependGraph[2304]: No producer. consumer: 
dependGraph[2305]: No producer. consumer: 
dependGraph[2306]: No producer. consumer: 
dependGraph[2307]: No producer. consumer: 
dependGraph[2308]: No producer. consumer: 
dependGraph[2309]: No producer. consumer: 
dependGraph[2310]: No producer. consumer: 
dependGraph[2311]: No producer. consumer: 
dependGraph[2312]: No producer. consumer: 
dependGraph[2313]: No producer. consumer: 
dependGraph[2314]: No producer. consumer: 
dependGraph[2315]: No producer. consumer: 
dependGraph[2316]: No producer. consumer: 
dependGraph[2317]: No producer. consumer: 
dependGraph[2318]: No producer. consumer: 
dependGraph[2319]: No producer. consumer: 
dependGraph[2320]: No producer. consumer: 
dependGraph[2321]: No producer. consumer: 
dependGraph[2322]: No producer. consumer: 
dependGraph[2323]: No producer. consumer: 
dependGraph[2324]: No producer. consumer: 
dependGraph[2325]: No producer. consumer: 
dependGraph[2326]: No producer. consumer: 
dependGraph[2327]: No producer. consumer: 
dependGraph[2328]: No producer. consumer: 
dependGraph[2329]: No producer. consumer: 
dependGraph[2330]: No producer. consumer: 
dependGraph[2331]: No producer. consumer: 
dependGraph[2332]: No producer. consumer: 
dependGraph[2333]: No producer. consumer: 
dependGraph[2334]: No producer. consumer: 
dependGraph[2335]: No producer. consumer: 
dependGraph[2336]: No producer. consumer: 
dependGraph[2337]: No producer. consumer: 
dependGraph[2338]: No producer. consumer: 
dependGraph[2339]: No producer. consumer: 
dependGraph[2340]: No producer. consumer: 
dependGraph[2341]: No producer. consumer: 
dependGraph[2342]: No producer. consumer: 
dependGraph[2343]: No producer. consumer: 
dependGraph[2344]: No producer. consumer: 
dependGraph[2345]: No producer. consumer: 
dependGraph[2346]: No producer. consumer: 
dependGraph[2347]: No producer. consumer: 
dependGraph[2348]: No producer. consumer: 
dependGraph[2349]: No producer. consumer: 
dependGraph[2350]: No producer. consumer: 
dependGraph[2351]: No producer. consumer: 
dependGraph[2352]: No producer. consumer: 
dependGraph[2353]: No producer. consumer: 
dependGraph[2354]: No producer. consumer: 
dependGraph[2355]: No producer. consumer: 
dependGraph[2356]: No producer. consumer: 
dependGraph[2357]: No producer. consumer: 
dependGraph[2358]: No producer. consumer: 
dependGraph[2359]: No producer. consumer: 
dependGraph[2360]: No producer. consumer: 
dependGraph[2361]: No producer. consumer: 
dependGraph[2362]: No producer. consumer: 
dependGraph[2363]: No producer. consumer: 
dependGraph[2364]: No producer. consumer: 
dependGraph[2365]: No producer. consumer: 
dependGraph[2366]: No producer. consumer: 
dependGraph[2367]: No producer. consumer: 
dependGraph[2368]: No producer. consumer: 
dependGraph[2369]: No producer. consumer: 
dependGraph[2370]: No producer. consumer: 
dependGraph[2371]: No producer. consumer: 
dependGraph[2372]: No producer. consumer: 
dependGraph[2373]: No producer. consumer: 
dependGraph[2374]: No producer. consumer: 
dependGraph[2375]: No producer. consumer: 
dependGraph[2376]: No producer. consumer: 
dependGraph[2377]: No producer. consumer: 
dependGraph[2378]: No producer. consumer: 
dependGraph[2379]: No producer. consumer: 
dependGraph[2380]: No producer. consumer: 
dependGraph[2381]: No producer. consumer: 
dependGraph[2382]: No producer. consumer: 
dependGraph[2383]: No producer. consumer: 
dependGraph[2384]: No producer. consumer: 
dependGraph[2385]: No producer. consumer: 
dependGraph[2386]: No producer. consumer: 
dependGraph[2387]: No producer. consumer: 
dependGraph[2388]: No producer. consumer: 
dependGraph[2389]: No producer. consumer: 
dependGraph[2390]: No producer. consumer: 
dependGraph[2391]: No producer. consumer: 
dependGraph[2392]: No producer. consumer: 
dependGraph[2393]: No producer. consumer: 
dependGraph[2394]: No producer. consumer: 
dependGraph[2395]: No producer. consumer: 
dependGraph[2396]: No producer. consumer: 
dependGraph[2397]: No producer. consumer: 
dependGraph[2398]: No producer. consumer: 
dependGraph[2399]: No producer. consumer: 
dependGraph[2400]: No producer. consumer: 
dependGraph[2401]: No producer. consumer: 
dependGraph[2402]: No producer. consumer: 
dependGraph[2403]: No producer. consumer: 
dependGraph[2404]: No producer. consumer: 
dependGraph[2405]: No producer. consumer: 
dependGraph[2406]: No producer. consumer: 
dependGraph[2407]: No producer. consumer: 
dependGraph[2408]: No producer. consumer: 
dependGraph[2409]: No producer. consumer: 
dependGraph[2410]: No producer. consumer: 
dependGraph[2411]: No producer. consumer: 
dependGraph[2412]: No producer. consumer: 
dependGraph[2413]: No producer. consumer: 
dependGraph[2414]: No producer. consumer: 
dependGraph[2415]: No producer. consumer: 
dependGraph[2416]: No producer. consumer: 
dependGraph[2417]: No producer. consumer: 
dependGraph[2418]: No producer. consumer: 
dependGraph[2419]: No producer. consumer: 
dependGraph[2420]: No producer. consumer: 
dependGraph[2421]: No producer. consumer: 
dependGraph[2422]: No producer. consumer: 
dependGraph[2423]: No producer. consumer: 
dependGraph[2424]: No producer. consumer: 
dependGraph[2425]: No producer. consumer: 
dependGraph[2426]: No producer. consumer: 
dependGraph[2427]: No producer. consumer: 
dependGraph[2428]: No producer. consumer: 
dependGraph[2429]: No producer. consumer: 
dependGraph[2430]: No producer. consumer: 
dependGraph[2431]: No producer. consumer: 
dependGraph[2432]: No producer. consumer: 
dependGraph[2433]: No producer. consumer: 
dependGraph[2434]: No producer. consumer: 
dependGraph[2435]: No producer. consumer: 
dependGraph[2436]: No producer. consumer: 
dependGraph[2437]: No producer. consumer: 
dependGraph[2438]: No producer. consumer: 
dependGraph[2439]: No producer. consumer: 
dependGraph[2440]: No producer. consumer: 
dependGraph[2441]: No producer. consumer: 
dependGraph[2442]: No producer. consumer: 
dependGraph[2443]: No producer. consumer: 
dependGraph[2444]: No producer. consumer: 
dependGraph[2445]: No producer. consumer: 
dependGraph[2446]: No producer. consumer: 
dependGraph[2447]: No producer. consumer: 
dependGraph[2448]: No producer. consumer: 
dependGraph[2449]: No producer. consumer: 
dependGraph[2450]: No producer. consumer: 
dependGraph[2451]: No producer. consumer: 
dependGraph[2452]: No producer. consumer: 
dependGraph[2453]: No producer. consumer: 
dependGraph[2454]: No producer. consumer: 
dependGraph[2455]: No producer. consumer: 
dependGraph[2456]: No producer. consumer: 
dependGraph[2457]: No producer. consumer: 
dependGraph[2458]: No producer. consumer: 
dependGraph[2459]: No producer. consumer: 
dependGraph[2460]: No producer. consumer: 
dependGraph[2461]: No producer. consumer: 
dependGraph[2462]: No producer. consumer: 
dependGraph[2463]: No producer. consumer: 
dependGraph[2464]: No producer. consumer: 
dependGraph[2465]: No producer. consumer: 
dependGraph[2466]: No producer. consumer: 
dependGraph[2467]: No producer. consumer: 
dependGraph[2468]: No producer. consumer: 
dependGraph[2469]: No producer. consumer: 
dependGraph[2470]: No producer. consumer: 
dependGraph[2471]: No producer. consumer: 
dependGraph[2472]: No producer. consumer: 
dependGraph[2473]: No producer. consumer: 
dependGraph[2474]: No producer. consumer: 
dependGraph[2475]: No producer. consumer: 
dependGraph[2476]: No producer. consumer: 
dependGraph[2477]: No producer. consumer: 
dependGraph[2478]: No producer. consumer: 
dependGraph[2479]: No producer. consumer: 
dependGraph[2480]: No producer. consumer: 
dependGraph[2481]: No producer. consumer: 
dependGraph[2482]: No producer. consumer: 
dependGraph[2483]: No producer. consumer: 
dependGraph[2484]: No producer. consumer: 
dependGraph[2485]: No producer. consumer: 
dependGraph[2486]: No producer. consumer: 
dependGraph[2487]: No producer. consumer: 
dependGraph[2488]: No producer. consumer: 
dependGraph[2489]: No producer. consumer: 
dependGraph[2490]: No producer. consumer: 
dependGraph[2491]: No producer. consumer: 
dependGraph[2492]: No producer. consumer: 
dependGraph[2493]: No producer. consumer: 
dependGraph[2494]: No producer. consumer: 
dependGraph[2495]: No producer. consumer: 
dependGraph[2496]: No producer. consumer: 
dependGraph[2497]: No producer. consumer: 
dependGraph[2498]: No producer. consumer: 
dependGraph[2499]: No producer. consumer: 
dependGraph[2500]: No producer. consumer: 
dependGraph[2501]: No producer. consumer: 
dependGraph[2502]: No producer. consumer: 
dependGraph[2503]: No producer. consumer: 
dependGraph[2504]: No producer. consumer: 
dependGraph[2505]: No producer. consumer: 
dependGraph[2506]: No producer. consumer: 
dependGraph[2507]: No producer. consumer: 
dependGraph[2508]: No producer. consumer: 
dependGraph[2509]: No producer. consumer: 
dependGraph[2510]: No producer. consumer: 
dependGraph[2511]: No producer. consumer: 
dependGraph[2512]: No producer. consumer: 
dependGraph[2513]: No producer. consumer: 
dependGraph[2514]: No producer. consumer: 
dependGraph[2515]: No producer. consumer: 
dependGraph[2516]: No producer. consumer: 
dependGraph[2517]: No producer. consumer: 
dependGraph[2518]: No producer. consumer: 
dependGraph[2519]: No producer. consumer: 
dependGraph[2520]: No producer. consumer: 
dependGraph[2521]: No producer. consumer: 
dependGraph[2522]: No producer. consumer: 
dependGraph[2523]: No producer. consumer: 
dependGraph[2524]: No producer. consumer: 
dependGraph[2525]: No producer. consumer: 
dependGraph[2526]: No producer. consumer: 
dependGraph[2527]: No producer. consumer: 
dependGraph[2528]: No producer. consumer: 
dependGraph[2529]: No producer. consumer: 
dependGraph[2530]: No producer. consumer: 
dependGraph[2531]: No producer. consumer: 
dependGraph[2532]: No producer. consumer: 
dependGraph[2533]: No producer. consumer: 
dependGraph[2534]: No producer. consumer: 
dependGraph[2535]: No producer. consumer: 
dependGraph[2536]: No producer. consumer: 
dependGraph[2537]: No producer. consumer: 
dependGraph[2538]: No producer. consumer: 
dependGraph[2539]: No producer. consumer: 
dependGraph[2540]: No producer. consumer: 
dependGraph[2541]: No producer. consumer: 
dependGraph[2542]: No producer. consumer: 
dependGraph[2543]: No producer. consumer: 
dependGraph[2544]: No producer. consumer: 
dependGraph[2545]: No producer. consumer: 
dependGraph[2546]: No producer. consumer: 
dependGraph[2547]: No producer. consumer: 
dependGraph[2548]: No producer. consumer: 
dependGraph[2549]: No producer. consumer: 
dependGraph[2550]: No producer. consumer: 
dependGraph[2551]: No producer. consumer: 
dependGraph[2552]: No producer. consumer: 
dependGraph[2553]: No producer. consumer: 
dependGraph[2554]: No producer. consumer: 
dependGraph[2555]: No producer. consumer: 
dependGraph[2556]: No producer. consumer: 
dependGraph[2557]: No producer. consumer: 
dependGraph[2558]: No producer. consumer: 
dependGraph[2559]: No producer. consumer: 
dependGraph[2560]: No producer. consumer: 
dependGraph[2561]: No producer. consumer: 
dependGraph[2562]: No producer. consumer: 
dependGraph[2563]: No producer. consumer: 
dependGraph[2564]: No producer. consumer: 
dependGraph[2565]: No producer. consumer: 
dependGraph[2566]: No producer. consumer: 
dependGraph[2567]: No producer. consumer: 
dependGraph[2568]: No producer. consumer: 
dependGraph[2569]: No producer. consumer: 
dependGraph[2570]: No producer. consumer: 
dependGraph[2571]: No producer. consumer: 
dependGraph[2572]: No producer. consumer: 
dependGraph[2573]: No producer. consumer: 
dependGraph[2574]: No producer. consumer: 
dependGraph[2575]: No producer. consumer: 
dependGraph[2576]: No producer. consumer: 
dependGraph[2577]: No producer. consumer: 
dependGraph[2578]: No producer. consumer: 
dependGraph[2579]: No producer. consumer: 
dependGraph[2580]: No producer. consumer: 
dependGraph[2581]: No producer. consumer: 
dependGraph[2582]: No producer. consumer: 
dependGraph[2583]: No producer. consumer: 
dependGraph[2584]: No producer. consumer: 
dependGraph[2585]: No producer. consumer: 
dependGraph[2586]: No producer. consumer: 
dependGraph[2587]: No producer. consumer: 
dependGraph[2588]: No producer. consumer: 
dependGraph[2589]: No producer. consumer: 
dependGraph[2590]: No producer. consumer: 
dependGraph[2591]: No producer. consumer: 
memAllocCounter: 10
